<?xml version="1.0" encoding="UTF-8"?>

<!-- generated on 2021-06-20 15:40:53 by Eclipse SUMO duarouter Version 1.9.2
<configuration xmlns:xsi="http://www.w3.org/2001/XMLSchema-instance" xsi:noNamespaceSchemaLocation="http://sumo.dlr.de/xsd/duarouterConfiguration.xsd">

    <input>
        <net-file value="/home/diego/PycharmProjects/hadoop-simulation-urban-modbility/2021-06-20-15-40-03/osm.net.xml"/>
        <additional-files value="/home/diego/PycharmProjects/hadoop-simulation-urban-modbility/2021-06-20-15-40-03/osm_stops.add.xml,/home/diego/PycharmProjects/hadoop-simulation-urban-modbility/2021-06-20-15-40-03/osm_pt.rou.xml"/>
        <route-files value="/home/diego/PycharmProjects/hadoop-simulation-urban-modbility/2021-06-20-15-40-03/osm.pedestrian.trips.xml"/>
    </input>

    <output>
        <output-file value="/home/diego/PycharmProjects/hadoop-simulation-urban-modbility/2021-06-20-15-40-03/osm.pedestrian.rou.xml"/>
        <alternatives-output value="/home/diego/PycharmProjects/hadoop-simulation-urban-modbility/2021-06-20-15-40-03/osm.pedestrian.rou.alt.xml"/>
    </output>

    <time>
        <begin value="0"/>
        <end value="600"/>
    </time>

    <report>
        <no-warnings value="true"/>
        <ignore-errors value="true"/>
        <no-step-log value="true"/>
    </report>

</configuration>
-->

<routes xmlns:xsi="http://www.w3.org/2001/XMLSchema-instance" xsi:noNamespaceSchemaLocation="http://sumo.dlr.de/xsd/routes_file.xsd">
    <vType id="ped_pedestrian" vClass="pedestrian"/>
    <person id="ped0" type="ped_pedestrian" depart="0.00">
        <walk edges="173550588#0 154797835#1 154797835#0 173550532 225052903#7 225052903#1 -259262954#2 -259262954#1 -259262954#0 -225052930#6 -225052930#5 -225052930#4 -225052930#3 -225052930#2 -225052930#1 -225052930#0 169923281#0 -141650072#2 -141650072#1"/>
    </person>
    <person id="ped1" type="ped_pedestrian" depart="0.44">
        <walk edges="-206785681#6 -206785681#7 923743991 206785706#5 206785706#4 154913998#3 154913998#2 154913998#1 154913998#0 206785705#5 206785705#4 154377486 154154165#3 91885090 154154167#3 527267087#13 527267087#12 205860571 205860311#1 154166025#0 154166025#1 154166025#2 154166025#3 154166025#4 205860662#0 205860662#1 -154166040#7 -205860384#2"/>
    </person>
    <person id="ped2" type="ped_pedestrian" depart="0.88">
        <walk edges="205860649#0 205860664#0 205860567 -205860599 527267080 205860534#2 205860534#1 205860534#9 130888848 154342286 154342285#1 155445052#1 434309157 205860425#5 205860425#3 205860425#1 205860425#0 154979265 205860535#1 205860548 -62277607#1 205860643 -205860675#5 -205860675#4 -205860675#3 -205860675#2 -205860675#1 -205860371#2 -205860371#1 -205860371#0 -205860372#3 -205860372#2 205860372#1"/>
    </person>
    <person id="ped3" type="ped_pedestrian" depart="1.32">
        <walk edges="461592218#2 205860409#0 419930291#3 419930291#2 419930291#1 419930291#0 130920000#6 130920000#5 130920000#4 130920000#3 130920000#2 130920000#1 130920002#1 130919995#5 141650123#2 460222371#2 460222371#1 460222371#0 915811867#6 205860654#9 -154166090#0 -154166090#1"/>
    </person>
    <person id="ped4" type="ped_pedestrian" depart="1.76">
        <walk edges="130920003#2 130920000#1 130920002#1 130919995#5 141650123#2 141650123#1 141650123#0 888777002#0 888777001 888777000#0 205860278 -154979241#4 245665882#2 -205860460#2 -205860460#1 -205860460#0 205860459 205860535#5 205860535#6 205860637 -62277607#1 205860643 -205860675#5 -205860675#4 -205860675#3 -205860675#2 205860675#1 -141650113#5"/>
    </person>
    <person id="ped5" type="ped_pedestrian" depart="2.20">
        <walk edges="-205860371#1 -205860371#2 -205860675#1 -205860675#2 -205860675#3 -205860675#4 -205860675#5 205860643 -62277607#1 205860637 205860535#6 205860535#5 205860459 -205860460#0 -205860460#1 -205860460#2 245665882#2 -154979241#4 205860278 888777000#0 888777001 888777002#0 141650123#0 141650123#1 141650123#2 130919995#5 -130920002#1 -130920002#2 -130920002#3 -130920002#4 -205860475#0 205860475#1 205860475#2 154166057#1 154166057#2 446749128#0 446749128#1 446749128#2 446749128#4 446749128#5 446749128#6 446749128#7 154166076#0"/>
    </person>
    <person id="ped6" type="ped_pedestrian" depart="2.64">
        <walk edges="-141650107#0 -141650107#1 -141650107#2 -141650107#3 -259262953 -169923282#0 -169923282#1 -169923282#3 -169923282#4 -169923282#5 -169923282#6 -169923282#7 155035531 154979276#0 154979276#1 154979276#2 815116747 373344070#0 373344070#1 205860575#1 205860575#0 205860273#2 205860273#1 380698888#1 380698888#0 152850233#16 152850233#15 191519142#0 165885111 -152907362#1 -356685802#3 -356685802#2 -356685802#1 -356685802#0 152907299#0 -191519126#0 -191519125#7 -191519125#6 -191519125#5 -191519125#4 -191519125#3 -191519125#2 -191519125#1 -191519125#0"/>
    </person>
    <person id="ped7" type="ped_pedestrian" depart="3.07">
        <walk edges="191519133#7 -191519140#6 152907232#1 152907232#2 152907232#3 165885111 191519142#0 152850233#15 152850233#16 380698888#0 380698888#1 205860273#1 205860273#2 205860575#0 205860575#1 373344070#1 373344070#0 815116747 -154979276#2 205860439#0 155445052#1 434309157 -205860425#5 -205860425#3 -205860425#1 -205860425#0 205860424 205860535#3 155035442 -205860460#0 -205860460#1 -205860460#2 -205860460#3 245665881#1 205860391 205860389#1 205860389#2 205860389#3 205860389#4 205860389#5 205860389#6 205860389#7 205860389#8 205860389#9 205860389#10 205860389#11 205860389#12 154797709 205860305#0 205860305#1 154797738"/>
    </person>
    <person id="ped8" type="ped_pedestrian" depart="3.51">
        <walk edges="-205860374#0 -205860374#1 -205860374#2 -154166104#0 -154166104#1 154166106#1 154166106#0 -441354964#7 -205860355 154168222#3 154168222#2 154168222#1 -154168227#0 -154168227#1 155445053#1"/>
    </person>
    <person id="ped9" type="ped_pedestrian" depart="3.95">
        <walk edges="225052923#4 154797805#0 -154797872 154797890#5 205860612#4 205860612#3 205860612#2 -154797774 154797800#1 154797800#0 -205860367#7 472174220#0 205860368#1 205860368#2 205860677 444491948#0 444491948#1 444491948#2 205860642#1 205860642#2 205860642#3 205860524#0 154166057#0 -205860475#2 -205860475#1 -205860475#0 -130920002#4 -130920001#1 130920003#3 130920003#2 130920003#1 130920003#0 -130882583#0 -130882583#1 -130882583#2"/>
    </person>
    <person id="ped10" type="ped_pedestrian" depart="4.39">
        <walk edges="225052910#2 225052910#1 225052910#0 225052927#3 225052927#2 -169923322#2 169923334#0 205860437"/>
    </person>
    <person id="ped11" type="ped_pedestrian" depart="4.83">
        <walk edges="-476998469#0 -476708485#1 -476708485#0 -476708484#0 -476998468#0 -925006919 476708481 205860311#16 205860311#15 205860311#14 205860311#13 205860311#12 205860311#11 205860311#10 -570276157#0 915429560#1 915429560#0 205860311#7 205860311#6 205860311#5 205860311#4 205860311#3 205860311#2 154166025#0 162945054#1 162945054#2 205860400#1 205860409#0 205860409#1 205860409#2 205860409#5 -205860365#0 -155221632#0"/>
    </person>
    <person id="ped12" type="ped_pedestrian" depart="5.27">
        <walk edges="911135575#1 911135575#0 -911135576#0 -911135577#1 911135577#0 -911135578#0 911135581#1 -171309448#6 -171309448#5 -171309448#4 -171309448#3 -171309448#2 -171309448#1 -171309448#0 154154167#1 205860311#0 205860311#1 -154166025#0 162945054#0 -443083020#1 -443083020#2 -443083020#3 -443083020#4 -205860374#0 -205860374#1 -205860374#2 -446749128#2 -446749128#1 -446749128#0 -154166057#2 -154166057#1 -154166057#0 205860524#0 205860524#1 205860524#2 -205860368#3 205860668#5 205860476#10 205860473#3 205860473#2 205860473#1 -460223841#1 -460223841#2 -460223841#3"/>
    </person>
    <person id="ped13" type="ped_pedestrian" depart="5.71">
        <walk edges="-154166105#2 -154166075#1 -154166075#0 915811867#7 915811867#6 915811867#5 460222372 205860654#7 205860654#6 205860654#5 205860654#4 205860654#3 205860654#2 205860654#1 205860654#0 444491948#5 444491948#4 444491948#3 205860642#1 205860642#2 205860642#3 205860642#4 166907800#1 -154166022#0 -154166022#1 -444488635#0 -444488635#1 -441354964#6 -441354964#7 446749130 154168190#0 -154168197"/>
    </person>
    <person id="ped14" type="ped_pedestrian" depart="6.15">
        <walk edges="380698884#4 169923247#2 169923247#1 169923247#0 -169923246#3 -169923246#2 -169923246#1 155035514#1 129213040#4 169923248#0 169923248#1 169923248#2 -155035496#0 -155035496#1 225052911#1 259262949#1 259262949#0 225052909#6 225052909#5 225052909#4 225052909#3 225052909#2 225052909#1 225052909#0 169923288#2 169923288#1 -154247174#1 -154247174#0 169923277#2"/>
    </person>
    <person id="ped15" type="ped_pedestrian" depart="6.59">
        <walk edges="225052914#0 169923270#0 169923270#1 169923270#2 169923270#3 169923331#1 -205860474#1 -169923317#1 -205860372#1 -205860372#2 -205860372#3 -259262954#2 225052903#2 225052903#3 225052907 173550589#1 173550578#1 -173550578#0 141650083 259262956#1 259262956#2 259262956#3 173550528#0 173550528#1 173550528#2 173550528#3 173550528#4 173550528#5 173550528#6 173550528#7 173550528#8 173550528#9 173550528#10 173550528#11 154797723 -154797780 205860672#1 205860672#2 -205860612#5 -205860612#4 -205860612#3 205860612#2"/>
    </person>
    <person id="ped16" type="ped_pedestrian" depart="7.03">
        <walk edges="154797688#0 154797688#1 154797688#2 -460223841#6 -460223841#5 -460223841#4 -460223841#3 -460223841#2 -460223841#1 205860473#1 205860473#2 205860473#3 205860476#10 205860668#5 -205860368#3 205860524#2 205860524#1 205860524#0 -154166057#0 -154166057#1 -154166057#2 -446749128#0 -446749128#1 -446749128#2 -205860374#2 -205860374#1 -205860374#0 -443083020#4 -443083020#3 -443083020#2 -443083020#1 -443083020#0 205860311#5 205860311#6 205860311#7 915429560#0 915429560#1 570276157#1 570276154#1 570276154#2 -570276152#3 -570276152#2 -570276152#1 915689633#3"/>
    </person>
    <person id="ped17" type="ped_pedestrian" depart="7.47">
        <walk edges="-915447947#1 -915447946#1 -915447946#0 205860654#2 205860654#3 205860654#4 205860654#5 129213020#0 129213020#1 129213020#2 129213020#3 129213020#4 129213020#5 129213020#6 -205860418#0 -923237983 -154797790 -154797732#0 -154797732#1 -154797732#2 173550578#1 173550589#1 225052907 225052903#4 225052903#5 225052903#6 173550532 161884210#1 154797804#0"/>
    </person>
    <person id="ped18" type="ped_pedestrian" depart="7.91">
        <walk edges="338713175 815117303 815116747 154979278#4 154979278#3 154979278#2 154979262#1 205860439#4 154979246#2 169923334#4"/>
    </person>
    <person id="ped19" type="ped_pedestrian" depart="8.34">
        <walk edges="441354964#1 -130920001#4 -130920001#3 -130920001#2 130920001#1 130920002#3 130920002#2 130920002#1 130919995#5 141650123#2 141650123#1 141650123#0 888777002#0 130886846#2 130886846#1 130886846#0 888777000#3 29011863#0 154979274#0 154979267#3 154979267#2"/>
    </person>
    <person id="ped20" type="ped_pedestrian" depart="8.78">
        <walk edges="205860460#1 205860460#0 155035442 205860535#3 205860424 -205860425#0 -205860425#1 -205860425#3 -205860425#5 434309157 155445052#1 205860439#0 -154979276#2 815116747 373344070#0 373344070#1 205860575#1 205860575#0 205860273#2 205860273#1 380698888#1 380698888#0 152850233#16 152850233#15 191519142#0 165885111 -152907362#1 -356685802#3 -206785659#2 -206785659#1 -206785659#0 -191519140#0 -153474797#10 -153474797#9 -153474797#8 -153474797#7"/>
    </person>
    <person id="ped21" type="ped_pedestrian" depart="9.22">
        <walk edges="-205860389#2 -205860389#1 205860391 245665881#1 -205860460#3 -205860460#2 -205860460#1 -205860460#0 155035442 205860535#3 205860424 -205860425#0 -205860425#1 -205860425#3 -205860425#5 434309157 155445052#1 205860439#0 -154979276#2 815116747 373344070#0 373344070#1 205860575#1 205860575#0 205860273#2 205860273#1 380698888#1 154295979 154295978#5 191519118 206785643#7 206785643#6 206785643#5 206785643#3 206785643#2 206785643#1 206785643#0 -206789214 -206789218#0"/>
    </person>
    <person id="ped22" type="ped_pedestrian" depart="9.66">
        <walk edges="-154166057#2 -446749128#0 -446749128#1 -446749128#2 446749128#4 446749128#5 446749128#6 446749128#7 446749128#8 -915447945#2 -915447945#1 -915447945#0 -205860400#4 -205860400#3"/>
    </person>
    <person id="ped23" type="ped_pedestrian" depart="10.10">
        <walk edges="-154247167#0 -169923270#1 169923289#1 154247166#0 -918231532#0 918231531#1 -918231525#1 -918231525#0 225052930#6 141650107#0 141650107#1 141650107#2 141650107#3 259262953 169923282#0 169923282#1 169923282#3 169923282#4 169923282#5 169923282#6 169923282#7 -155035531 154979276#0 154979276#1 154979276#2 815116747 815117303 338713175 338713174 206785767#5 206785767#4 206785718#1 206785718#0 608946461#0 608946461#1 -206785730"/>
    </person>
    <person id="ped24" type="ped_pedestrian" depart="10.54">
        <walk edges="173550550 173550551 173550528#1 173550528#0 259262956#3 259262956#2 259262956#1 141650083 -173550578#0 -173550578#1 154797916#0 205860276#0 245665881#3 245665881#2 245665881#1 -205860460#3 -205860460#2 -205860460#1 -205860460#0 155035442 205860535#3 205860424 -205860425#0 -205860425#1 -205860425#3 -205860425#5 434309157 155445052#1 154342285#1 154342286 130888848 205860534#9 205860534#1 205860534#2 527267080 -205860599 -924756877#0 205860531 608948246 205860624#2 205860624#3 609586986 544381453#4 612403312#0 612403312#1 612403313 206785742 206785712 206785710 205860520 205860605 -206785716 924741136#1 154913985 206789206 747896162 -154913984 206785705#4 154377486 154154165#3 154154165#2 154155834#0 154155834#1 154154167#5 -171309448#0 -171309448#1 -171309448#2 -171309448#3 -911098583#0 911098582 -911098583#1"/>
    </person>
    <person id="ped25" type="ped_pedestrian" depart="10.98">
        <walk edges="-911191084 -171309448#9 -171309448#11 -171309448#12 -171309448#14 -154166023#0 -154166023#1 -154166023#2 -154166023#3 -154166023#4 -154166023#5 -205860353#6"/>
    </person>
    <person id="ped26" type="ped_pedestrian" depart="11.42">
        <walk edges="-206785664#0 153481107#1 153481107#0 154979256 -206785643#0 -206785643#1 206785643#2 206785643#3 206785643#5 206785643#6 206785643#7 191519118 154295978#5 154295979 380698888#1 205860273#1 130921074#0 130921074#1 612408549#1 130921071#0 130921073#1 130921076#3 612408550#1 612408550#2"/>
    </person>
    <person id="ped27" type="ped_pedestrian" depart="11.86">
        <walk edges="191519126#1 356685802#0 -356685802#1 -356685802#2 -356685802#3 -152907362#1 165885111 191519142#0 152850233#15 152850233#16 380698888#0 380698888#1 205860273#1 205860273#2 205860575#0 205860575#1 373344070#1 373344070#0 815116747 154979276#2 154979276#1 154979276#0 -155035531 169923282#7 169923282#6 169923282#5 169923282#4 169923282#3 169923282#1 169923282#0 259262953 141650107#3 141650107#2 141650107#1 141650107#0 225052930#6 -918231525#0 -918231525#1 918231531#1 -918231532#0 154247166#0 169923289#1"/>
    </person>
    <person id="ped29" type="ped_pedestrian" depart="12.74">
        <walk edges="-169923268#1 -918231532#3 -918231532#2 -918231532#1 -918231532#0 918231531#1 -918231525#1 -918231525#0 -225052930#6 -141650107#0 -141650107#1 -141650107#2 -141650107#3 -259262953 -169923282#0 -169923282#1 -169923282#3 -169923282#4 -169923282#5 -169923282#6 -62277607#0 -62277607#1 205860637 205860535#6 205860535#5 205860459 -205860460#0 -205860460#1 -205860460#2 245665882#2 -154979241#4 205860278 888777000#0 888777001 130886846#2 205860311#23 205860311#22 205860311#21 205860311#20 205860311#19 205860311#18 205860311#17 205860311#16 205860311#15 205860311#14 205860311#13 205860311#12 205860311#11 205860311#10 -570276157#0 -570276157#1 570276150#3 570276150#2 570276150#1 -915689633#0"/>
    </person>
    <person id="ped30" type="ped_pedestrian" depart="13.18">
        <walk edges="925006918 925006920 -925006919 476708483 205860311#18 205860311#19 205860311#20 205860311#21 205860311#22 205860311#23 130886846#2 888777001 888777000#0 205860278 -154166072#1 -154166072#0 154166058 245665881#3 205860276#0 154797916#0 -173550578#1 173550578#0 141650120 918135088 225052920#1 225052920#0 225052925#11 -154797776#0 154797776#1 173550588#1 173550588#2"/>
    </person>
    <person id="ped31" type="ped_pedestrian" depart="13.62">
        <walk edges="154797851 205860454#3 205860454#4 205860454#5 205860454#6 205860477 225052923#9 225052923#8 205860519 205860672#8 205860672#7 205860672#6 205860672#4 205860672#3 205860672#2 205860672#1 205860672#0 -205860305#6 -205860305#5 -205860305#4 -205860305#3 -205860305#2 -205860305#1 -205860305#0 -154797709 -205860389#12 -205860389#11 205860389#10"/>
    </person>
    <person id="ped32" type="ped_pedestrian" depart="14.05">
        <walk edges="380698877#5 380698877#4 380698877#3 380698877#2 380698877#1 380698878 205860273#0 205860273#1 130921074#0 130921074#1 130921074#2 130921073#3 130920949#0 130920949#1 -381500578 206785744#5 206785744#4 206785744#3"/>
    </person>
    <person id="ped33" type="ped_pedestrian" depart="14.49">
        <walk edges="-205860389#7 -205860389#6 -205860389#5 -205860389#4 -205860389#3 -205860389#2 -205860389#1 205860391 245665881#1 -205860460#3 -205860460#2 -205860460#1 -205860460#0 205860459 205860535#5 205860535#6 205860637 -62277607#1 -62277607#0 -169923282#6 169923282#5 169923282#4 169923282#3 169923282#1 169923282#0 169923311#4 -169923311#3 -169923311#2 -169923311#1 -141650129#9 -141650129#8"/>
    </person>
    <person id="ped34" type="ped_pedestrian" depart="14.93">
        <walk edges="-380698887#0 -152907345#3 -152907345#2 -152907345#1 -152907345#0 -152907402#0 247366415#2 380698877#5 152850233#10 152907247 191519140#5 191519140#4 191519140#3 -191519140#1 -191519140#0 -152907333 191519111#2 206785662#0 153481117#0 153481117#1 153481117#2 206785672#2 153481090#0 153481090#1 153481090#2 -206785665#1"/>
    </person>
    <person id="ped35" type="ped_pedestrian" depart="15.37">
        <walk edges="-205860359#1 130919995#0 -130919995#1 130919998#0 205860398#1 -130877767#1 -130877767#0 130883281#4 -130883283#2 -130883283#3 -130883283#4 -130883284#0 -130883284#1 -130882583#5 527267087#2 -205860456#0 -205860456#1 -205860456#2 -205860456#3 205860534#6 205860534#5 205860534#4 205860534#3 205860534#2 815117305#2 815117305#1 815117305#0 815117304"/>
    </person>
    <person id="ped36" type="ped_pedestrian" depart="15.81">
        <walk edges="460223840 205860668#3 205860668#4 205860668#5 205860677 444491948#0 444491948#1 444491948#2 444491948#3 444491948#4 444491948#5 205860654#0 205860654#1 205860654#2 205860654#3 205860654#4 205860654#5 205860654#6 205860654#7 460222372 915811867#5 915811867#6 915811867#7 915811867#8 888777000#0 888777000#1 888777000#2 29011863#0 29011863#1 154979260#1 154979260#2 154979269#0 154979269#1 154979269#2 154979269#3 -169923334#4 -169923334#2 -169923334#1 -169923334#0 130888854 205860479 155035514#1 155035451 380698883#4 380698883#3 -380698883#2"/>
    </person>
    <person id="ped37" type="ped_pedestrian" depart="16.25">
        <walk edges="205860273#2 205860273#1 205860273#0 141650095#1 141650095#0 373344070#4 925008264 -925008260 926644051#0 -926644051#1"/>
    </person>
    <person id="ped38" type="ped_pedestrian" depart="16.69">
        <walk edges="544381453#7 544381453#6 544381453#5 609586986 205860624#3 205860624#2 205860624#1 690499497 -152586885#2 205860521 -130921075#4 -130921075#3 -130921075#2 544381459#0 544381456#2 544381456#1 612408550#2 612408550#1 130921076#3 130921073#1 130921071#0 612408549#1 130921074#1 130921074#0 205860273#1 380698888#1 380698888#0 152850233#16 152850233#15 191519142#0 165885111 -152907362#1 -356685802#3 -356685802#2 -356685802#1 356685802#0 191519126#1 191519126#0 191519125#7 191519125#6 191519125#5 191519125#4 191519125#3 191519125#2 153474792#2"/>
    </person>
    <person id="ped39" type="ped_pedestrian" depart="17.13">
        <walk edges="-206785659#1 -206785659#2 -356685802#3 -152907362#1 165885111 191519142#0 152850233#15 152850233#16 380698888#0 380698888#1 205860273#1 205860273#2 205860273#3 154356894#0 154356894#1 815117304 815117305#0 815117305#1 815117305#2 205860534#2 205860534#3 205860534#4 205860534#5 205860534#6 -205860456#3 -205860456#2 -205860456#1 -205860456#0 527267087#2 -130882583#5 -130883284#1 -130883284#0 -130883283#4 -130883283#3 205860463#0 -205860463#1"/>
    </person>
    <person id="ped40" type="ped_pedestrian" depart="17.57">
        <walk edges="154797890#0 205860305#4 -205860305#3 -205860305#2 -205860305#1 -205860305#0 -154797709 -205860389#12 -205860389#11 205860389#10 205860389#9 205860389#8 205860389#7 205860389#6 205860389#5 205860389#4 205860389#3 205860389#2 205860389#1 205860391 245665881#1 -205860460#3 -205860460#2 -205860460#1 -205860460#0 205860459 205860535#5 205860535#6 205860637 -62277607#1 205860643 -205860675#5"/>
    </person>
    <person id="ped41" type="ped_pedestrian" depart="18.01">
        <walk edges="155035507#1 155035507#0 -169923334#2 -169923334#4 154979269#3 154979269#2 154979269#1 154979269#0 154979260#2 154979260#1 29011863#1 29011863#0 888777000#3 130886846#0 527267087#0 527267087#1 527267087#2 205860311#19 205860311#18 476708483 -925006919 -476998468#0 -476708484#0 476708484#1"/>
    </person>
    <person id="ped42" type="ped_pedestrian" depart="18.45">
        <walk edges="129213040#4 -205860479 225052927#1 225052927#2 225052927#3 225052910#0 225052910#1 225052910#2 225052910#3 -205860388#2 205860388#0 169923282#7 169923282#6 -169923282#5 141650155 -205860675#5 -205860675#4 -205860675#3 -205860675#2 -205860675#1 -205860371#2 -205860371#1 -205860371#0 -205860372#3 -205860372#2 -205860372#1"/>
    </person>
    <person id="ped43" type="ped_pedestrian" depart="18.89">
        <walk edges="926644049 -926644051#1 926644051#0 -925008260 925008264 373344070#4 141650095#0 141650095#1 380698878 380698877#1 153474816 380698889#0 380698889#1 154295978#1 154295978#2 154295978#3 368162348 206785643#7 206785643#6 206785643#5 206785643#3 206785643#2 206785643#1 206785643#0 154305445#1 154305445#0 206785706#4 154913998#3 612408548#1 154154170#1 154154170#2 206785705#1 206785705#2 154154169 154154165#5 154154165#0 154154165#1 154155834#0 154155834#1 154154167#5 -171309448#0 -171309448#1 -171309448#2 -171309448#3 -171309448#4 -171309448#5 -171309448#6 -171309448#7 -171309448#8 -171309448#9 -171309448#11 -171309448#12 154166097#0"/>
    </person>
    <person id="ped44" type="ped_pedestrian" depart="19.32">
        <walk edges="-154166101#4 461592216#4 461592216#3 205860353#0 205860400#2 205860400#1 162945054#2 162945054#1 154166025#0 205860311#1 205860571 527267087#12 527267087#13 154154167#3 91885090 154154165#3 154377486 206785705#4 206785705#5 154913998#0 154913998#1 154913998#2 154913998#3 206785706#4 154305445#0 206785770 153481107#0 -153474808#8 -153474808#7 -153474808#6 -153474808#5 -153474808#4"/>
    </person>
    <person id="ped45" type="ped_pedestrian" depart="19.76">
        <walk edges="-154797679#8 205860473#3 205860476#10 205860668#5 -205860368#3 205860524#2 205860524#1 205860524#0 -154166057#0 -154166057#1 -154166057#2 -446749128#0 -446749128#1 -446749128#2 -205860374#2 -205860374#1 -205860374#0 -443083020#4 -443083020#3 -443083020#2 -443083020#1 162945054#0 -154166025#0 205860311#1 205860311#0 154154167#1 -171309448#0 -171309448#1 -171309448#2 -171309448#3 -171309448#4 -171309448#5 -154157927 171309464#1 171309451#9"/>
    </person>
    <person id="ped46" type="ped_pedestrian" depart="20.20">
        <walk edges="206789198#0 206785643#3 206785643#5 206785643#6 206785643#7 191519118 154295978#5 154295979 380698888#1 205860273#1 205860273#2 205860273#3 154356894#0 154356894#1 815117304 815117305#0 815117305#1 815117305#2 205860534#2 205860534#3 205860534#4 205860534#5 205860534#6 -205860456#3 -205860456#2 -205860456#1 -205860456#0 527267087#2 -130882583#5 -130882583#4 -130882583#3 -130882583#2 -130882583#1 -130882583#0 130920003#0 130920003#1 130920003#2 130920003#3"/>
    </person>
    <person id="ped47" type="ped_pedestrian" depart="20.64">
        <walk edges="-154157925#2 -154157925#1 154157951 206785705#2 206785705#3 154377486 154154165#3 91885090 154154167#3 527267087#13 527267087#12 527267087#11 527267087#10 419930293#1 205860311#4 205860375 -443083020#1 -443083020#2 -443083020#3 -443083020#4 -205860374#0 -205860374#1 -205860374#2 -154166104#0 -154166104#1 -154166104#2 -917362969"/>
    </person>
    <person id="ped48" type="ped_pedestrian" depart="21.08">
        <walk edges="926523564 152907276#1 152907345#1 152907345#2 -152907345#3 -380698887#0 -380698887#1 154300832#3"/>
    </person>
    <person id="ped49" type="ped_pedestrian" depart="21.52">
        <walk edges="915447947#0 -915447946#1 -915447946#0 205860654#1 205860654#0 205860557 915811867#3 205860526#0 205860526#1 444306144#0 444306144#1 154166035#0 154166035#1 154166035#2 154166035#3 154166035#4 -205860360#0 -439478173#1 439478173#2 -154166025#4 130920001#8 -441225646#0 441225645"/>
    </person>
    <person id="ped50" type="ped_pedestrian" depart="21.96">
        <walk edges="-130883284#2 -130882582#4 205860311#22 205860311#23 130886846#2 888777001 888777000#0 205860278 -154979241#4 245665882#2 -205860460#2 -205860460#1 -205860460#0 205860459 205860535#5"/>
    </person>
    <person id="ped51" type="ped_pedestrian" depart="22.40">
        <walk edges="205860386#0 -205860386#0 -205860386#1 -205860386#2 -441225646#0 130920001#8 -154166025#4 -205860662#0 154166035#6 205860374#1 -205860374#2 -446749128#2 -446749128#1 -446749128#0 -154166057#2 -154166057#1 -154166057#0 205860524#0 205860524#1 205860524#2 -205860368#3 205860668#5 205860476#10 205860473#3 205860473#2 205860473#1 -460223841#1 -460223841#2 -460223841#3 -460223841#4 -460223841#5 460223841#6 -154797696#0 154797696#0"/>
    </person>
    <person id="ped52" type="ped_pedestrian" depart="22.84">
        <walk edges="-206785663#3 -153481113#3 -153481113#2 -153481113#1 -153481113#0 206785643#2 206785643#3 206785643#5 206785643#6 206785643#7 191519118 154295978#5 154295979 380698888#1 205860273#1 205860273#2 205860575#0 205860575#1 373344070#1 373344070#0 815116747 -154979276#2 205860439#0 155445052#1 434309157 -205860425#5 -205860425#3 -205860425#1 -205860425#0 205860424 205860535#3 155035442 -205860460#0 -205860460#1 -205860460#2 -205860460#3 245665881#1 245665881#2 245665881#3 205860276#0 154797916#0 -173550578#1 173550578#0 141650120 918135088 225052920#1 225052920#0 225052925#11 225052925#10 225052925#9 225052925#8 225052925#7 225052925#6 154797815#0 154797739 173550564#1 173550588#6"/>
    </person>
    <person id="ped53" type="ped_pedestrian" depart="23.28">
        <walk edges="-154797688#2 -154797688#1 -154797688#0 -205860454#2 -205860454#3 -205860454#4 -205860454#5 -205860454#6 205860477 225052923#9 225052923#8 225052923#6 225052923#5 225052923#4 225052923#3 225052923#2 225052923#1 225052923#0 154797723 173550528#11 173550528#10 173550528#9 173550528#8 173550528#7 173550528#6 173550528#5 173550528#4 173550528#3 173550528#2 173550528#1 173550528#0 259262956#3 259262956#2 259262956#1 141650083 -173550578#0 173550578#1 173550589#1 225052907 225052903#3 225052903#2 259262954#2 259262954#1 259262954#0 225052930#6 225052930#5 225052930#4 225052930#3 141650112#0"/>
    </person>
    <person id="ped54" type="ped_pedestrian" depart="23.72">
        <walk edges="152907333 191519111#1 206785669#0 206785669#1 206785669#2 206785669#3 206785669#4 206785669#5 -368167200#0 947581040 206785706#2 154154170#0 154154170#1 154154170#2 206785705#1 206785705#2 154154169 154154165#5 154154165#0 154154165#1 154155834#0 154155834#1 154154167#5 -171309448#0 911098581"/>
    </person>
    <person id="ped55" type="ped_pedestrian" depart="24.16">
        <walk edges="460222371#2 460222371#1 888777002#1 888777002#0 130886846#2 130886846#1 130886846#0 205860272#4 205860272#3 205860272#2 205860272#1 205860272#0 205860273#4 205860273#3 205860273#2 205860273#1 380698888#1 154295979 154295978#5 191519118 206785643#7 206785643#6 206785643#5 206785643#3 206785643#2 -206785643#1"/>
    </person>
    <person id="ped56" type="ped_pedestrian" depart="24.60">
        <walk edges="154166046 -154166106#2 -154166106#1 -154166106#0 -441354964#6 -444488635#1 -444488635#0 -154166022#1 -205860475#3 -205860475#2 -205860475#1 -205860475#0 -130920002#4 -130920002#3 -130920002#2 -130920002#1 130919995#5 141650123#2 141650123#1 141650123#0 888777002#0 130886846#2 130886846#1 130886846#0 888777000#3 29011863#0 29011863#1 154979260#1 154979260#2 154979269#0 154979269#1 154979269#2 154979269#3 -169923334#4 -169923334#2 -169923334#1 -169923334#0 130888854 205860479 155035514#1 169923246#1 -169923332#3"/>
    </person>
    <person id="ped57" type="ped_pedestrian" depart="25.03">
        <walk edges="544381453#11 853028550#0 206785776#0 130920950#2 205860446#5 205860446#2 205860446#1 205860446#0 205860534#5 205860534#6 205860534#7 130920938 205860272#1 205860272#2 205860272#3 205860272#4 888777000#3 888777000#2 888777000#1 888777000#0 915811867#8 915811867#7 915811867#6 915811867#5 460222372 205860654#7 205860654#6 205860654#5 205860654#4 205860654#3 205860654#2 205860654#1 205860654#0 444491948#5 444491948#4 444491948#3 444491948#2 444491948#1 444491948#0 205860677 205860368#2 -917327303#0 917327303#1 -444492539 -444492533#2 -444492533#3 -444492533#4 444492533#5"/>
    </person>
    <person id="ped58" type="ped_pedestrian" depart="25.47">
        <walk edges="-225052927#3 -225052910#0 -225052910#1 -225052910#2 225052910#3 -205860388#2 -205860388#0 -169923282#7 62277607#0 62277607#1 205860637 205860535#6 205860535#5 205860459 -205860460#0 -205860460#1 -205860460#2 -205860460#3 245665881#1 245665881#2 245665881#3 205860276#0 154797916#0 -173550578#1 -173550578#0 141650083 259262956#1 259262956#2 259262956#3 173550528#0 173550585"/>
    </person>
    <person id="ped59" type="ped_pedestrian" depart="25.91">