<?xml version="1.0" encoding="UTF-8"?>

<!-- generated on 2021-05-26 08:21:47 by Eclipse SUMO duarouter Version 1.9.2
<configuration xmlns:xsi="http://www.w3.org/2001/XMLSchema-instance" xsi:noNamespaceSchemaLocation="http://sumo.dlr.de/xsd/duarouterConfiguration.xsd">

    <input>
        <net-file value="/home/diego/Sumo/2021-05-26-08-21-39/osm.net.xml"/>
        <route-files value="/home/diego/Sumo/2021-05-26-08-21-39/osm.truck.trips.xml"/>
    </input>

    <output>
        <output-file value="/home/diego/Sumo/2021-05-26-08-21-39/osm.truck.trips.xml.tmp"/>
        <write-trips value="true"/>
    </output>

    <time>
        <begin value="0"/>
        <end value="60"/>
    </time>

    <report>
        <no-warnings value="true"/>
        <ignore-errors value="true"/>
        <no-step-log value="true"/>
    </report>

</configuration>
-->

<routes xmlns:xsi="http://www.w3.org/2001/XMLSchema-instance" xsi:noNamespaceSchemaLocation="http://sumo.dlr.de/xsd/routes_file.xsd">
    <vType id="truck_truck" vClass="truck"/>
    <trip id="truck0" type="truck_truck" depart="0.00" departLane="best" from="169923246#1" to="-152907313#1"/>
    <trip id="truck2" type="truck_truck" depart="6.73" departLane="best" from="-169923323" to="152907345#0"/>
    <trip id="truck3" type="truck_truck" depart="10.10" departLane="best" from="-152907293#0" to="-155035507#1"/>
    <trip id="truck4" type="truck_truck" depart="13.47" departLane="best" from="225052910#3" to="-152907232#0"/>
    <trip id="truck5" type="truck_truck" depart="16.84" departLane="best" from="225052910#1" to="169923249#4"/>
    <trip id="truck6" type="truck_truck" depart="20.20" departLane="best" from="380698887#5" to="-247366415#0"/>
    <trip id="truck7" type="truck_truck" depart="23.57" departLane="best" from="-154300830#3" to="-154297413"/>
    <trip id="truck8" type="truck_truck" depart="26.94" departLane="best" departSpeed="max" from="247366426" to="154979245"/>
    <trip id="truck9" type="truck_truck" depart="30.31" departLane="best" from="225052910#2" to="169923278#2"/>
    <trip id="truck11" type="truck_truck" depart="37.04" departLane="best" from="225052939#1" to="154979272#1"/>
    <trip id="truck12" type="truck_truck" depart="40.41" departLane="best" departSpeed="max" from="259262949" to="154300832#1"/>
    <trip id="truck13" type="truck_truck" depart="43.77" departLane="best" from="-169923326#2" to="-205860388#1"/>
    <trip id="truck14" type="truck_truck" depart="47.14" departLane="best" departSpeed="max" from="-154289445" to="-169923308"/>
    <trip id="truck15" type="truck_truck" depart="50.51" departLane="best" from="-205860388#2" to="380698884#1"/>
    <trip id="truck16" type="truck_truck" depart="53.88" departLane="best" from="-155035508#1" to="169923278#2"/>
    <trip id="truck17" type="truck_truck" depart="57.24" departLane="best" departSpeed="max" from="-155035501#1" to="-380698881#3"/>
</routes>
