<?xml version="1.0" encoding="UTF-8"?>

<!-- generated on 2021-06-20 18:11:17 by Eclipse SUMO polyconvert Version 1.9.2
<configuration xmlns:xsi="http://www.w3.org/2001/XMLSchema-instance" xsi:noNamespaceSchemaLocation="http://sumo.dlr.de/xsd/polyconvertConfiguration.xsd">

    <input>
        <net-file value="osm.net.xml"/>
        <osm-files value="osm_bbox.osm.xml"/>
        <osm.keep-full-type value="true"/>
        <type-file value="/usr/share/sumo/data/typemap/osmPolyconvert.typ.xml"/>
    </input>

    <output>
        <output-file value="osm.poly.xml"/>
    </output>

    <processing>
        <poi-layer-offset value="5"/>
    </processing>

    <report>
        <verbose value="true"/>
    </report>

</configuration>
-->

<additional xmlns:xsi="http://www.w3.org/2001/XMLSchema-instance" xsi:noNamespaceSchemaLocation="http://sumo.dlr.de/xsd/additional_file.xsd">
    <location netOffset="-746619.12,2277829.40" convBoundary="0.00,0.00,5320.74,12408.61" origBoundary="-54.635323,-20.582669,-54.583055,-20.471126" projParameter="+proj=utm +zone=21 +ellps=WGS84 +datum=WGS84 +units=m +no_defs"/>

    <poly id="152586878" type="natural.water" color="181,209,209" fill="1" layer="-4.00" shape="1732.186512,8977.127958 1716.727449,8810.666657 1716.660119,8809.626471 1715.434938,8792.143842 1714.682996,8784.224200 1723.860315,8775.196297 1740.201480,8762.918379 1765.946906,8748.598321 1780.447817,8746.825304 1785.908550,8743.433943 1793.832212,8732.884661 1821.250695,8715.217254 1835.663036,8708.084567 1841.868989,8702.123709 1848.942125,8699.096495 1874.010746,8684.176920 1898.440807,8673.420211 1904.998656,8672.272371 1908.355846,8669.908493 1912.046019,8670.342054 1914.569265,8667.325755 1942.154271,8656.799891 1952.027152,8650.397853 1954.360791,8650.840108 1957.543629,8650.118048 1959.738055,8648.169857 1970.865891,8644.097678 1986.143437,8634.759131 1989.330469,8634.324987 1988.509373,8637.416164 1989.876463,8638.847220 1994.324510,8638.295000 1995.835677,8635.293445 1995.883232,8632.113862 2006.994059,8628.307735 2009.838103,8630.115996 2012.583437,8626.586932 2020.211986,8624.437642 2021.892313,8626.595161 2024.916896,8627.902354 2028.999957,8625.937684 2030.299408,8621.299925 2036.181860,8621.070137 2050.790395,8623.105543 2068.333440,8617.411195 2083.707496,8616.123599 2093.851814,8619.032662 2097.110289,8617.057852 2094.404766,8611.869318 2097.173788,8607.819307 2103.533947,8605.998617 2109.946061,8607.023771 2110.769960,8613.424918 2104.453259,8618.224496 2103.084414,8623.826912 2104.341062,8637.000430 2093.202427,8657.498981 2097.120922,8675.728755 2090.791978,8688.990780 2080.790414,8692.293421 2066.154152,8701.954986 2070.073079,8705.907434 2054.346001,8702.315519 2032.233274,8713.825076 2027.132083,8718.252449 2025.517834,8722.772959 2029.417018,8726.803237 2042.720300,8728.780164 2047.716218,8726.436661 2053.394137,8727.206719 2056.756294,8723.037305 2059.390555,8724.771086 2059.265696,8716.210945 2061.338599,8712.370470 2064.651944,8709.863207 2072.361479,8708.255453 2070.297883,8712.018260 2064.847186,8713.947506 2063.912074,8719.953411 2065.355216,8720.873845 2067.340060,8716.004560 2068.678997,8718.366429 2071.580077,8720.506138 2069.077486,8722.791127 2069.537477,8725.708555 2066.430248,8726.606752 2063.612298,8736.605428 2061.302548,8737.802128 2059.261943,8740.279749 2060.249820,8744.330333 2064.720836,8748.928231 2068.775273,8747.861151 2074.087514,8753.609785 2073.368146,8757.951103 2078.694959,8763.267549 2080.473864,8767.173679 2090.448325,8770.594741 2089.983721,8771.653765 2086.772175,8771.124646 2086.700726,8772.665291 2080.066677,8776.461539 2079.163702,8781.093519 2080.274300,8784.256210 2075.471696,8785.544655 2072.119155,8789.658550 2071.789319,8793.517905 2068.993281,8795.718563 2070.757814,8802.216752 2067.544628,8813.738642 2067.483973,8824.605354 2063.059982,8839.689310 2062.954290,8846.037557 2059.373902,8849.556652 2056.276823,8865.463049 2050.757295,8879.134138 2043.204659,8891.505722 2040.898621,8902.261185 2042.127169,8917.805432 2044.911493,8926.249251 2044.083523,8938.888277 2043.069669,8958.818201 2040.449955,8969.533931 2041.640787,8976.051566 2032.517815,8989.520436 2026.468414,9004.074260 2018.631310,9013.403997 2011.786710,9013.503801 2009.045363,9019.458500 2004.219498,9019.872230 1998.662451,9014.514807 1992.657947,9015.687829 1981.809598,9003.872550 1979.199243,8990.895994 1972.400954,8978.423545 1970.047114,8967.292985 1969.052558,8948.466755 1964.471861,8943.504913 1950.832587,8944.977524 1943.474754,8949.958342 1941.398740,8955.737187 1950.424982,8973.571306 1950.382022,8982.078504 1956.120836,8988.452306 1958.765804,9000.941004 1978.144853,9028.094394 1968.944524,9023.377120 1961.119478,9012.060491 1951.453788,9001.191590 1951.225350,8991.248434 1941.841055,8986.079703 1940.915587,8989.172396 1938.205698,8989.411271 1939.204673,8984.201941 1936.978278,8982.528650 1933.493999,8986.201379 1931.745988,8990.856737 1928.421651,8985.455673 1924.143287,8983.336013 1918.634393,8983.427387 1919.567981,8979.459553 1914.839779,8976.548957 1912.821926,8979.159137 1908.886279,8979.072510 1906.738182,8974.894840 1900.711474,8975.259587 1894.747397,8969.896992 1879.807774,8978.100708 1863.199549,8972.062505 1858.400972,8974.347685 1849.082609,8972.268223 1819.041908,8974.732903 1811.674994,8979.093520 1782.785709,8983.944906 1780.034728,8986.377452 1773.880560,8984.440150 1767.791132,8987.663435 1763.427359,8994.007236 1756.014240,8994.480736 1739.136201,8983.528492 1732.186512,8977.127958"/>
    <poly id="152846522" type="building.yes" color="255,230,230" fill="1" layer="-1.00" shape="2603.185882,9141.806697 2588.212639,9137.705762 2574.203906,9127.476596 2566.372076,9115.728315 2561.579915,9101.310527 2560.895397,9084.462385 2562.127019,9071.618019 2563.549599,9058.272428 2567.535203,9018.926506 2571.520292,8979.547358 2572.952958,8966.179463 2574.184388,8953.324019 2578.469584,8936.624769 2585.953617,8923.866237 2597.750788,8913.459296 2611.950676,8907.503132 2627.088833,8905.764394 2694.008616,8912.450844 2708.325993,8916.672020 2722.044113,8925.587235 2731.189357,8937.227632 2736.881381,8951.798371 2737.131357,8969.605448 2723.854007,9100.743916 2719.689650,9117.851269 2711.393305,9131.441383 2700.070644,9141.475935 2685.929777,9147.198684 2670.106557,9148.493335 2603.185882,9141.806697"/>
    <poly id="154166107" type="landuse.cemetery" color="194,194,130" fill="1" layer="-3.00" shape="1472.295244,7347.996875 1221.100874,7791.146312 1215.642774,7781.068794 1208.632538,7770.460036 1175.222261,7715.431864 1151.405382,7685.030590 1098.152014,7612.347350 1302.593531,7250.648055 1472.295244,7347.996875"/>
    <poly id="154166108" type="building.yes" color="255,230,230" fill="1" layer="-1.00" shape="3444.492783,7874.114722 3448.682422,7855.965493 3431.521272,7852.052575 3434.465029,7839.315834 3395.483271,7830.417447 3377.899082,7906.504373 3434.042201,7919.315756 3437.339312,7905.056366 3499.702121,7919.293745 3506.855492,7888.352064 3444.492783,7874.114722"/>
    <poly id="154166109" type="building.industrial" color="255,230,230" fill="1" layer="-1.00" shape="3161.581237,8804.524768 3207.722996,8830.443078 3236.066991,8780.571764 3232.605067,8778.628751 3247.336819,8752.726762 3211.749312,8732.734845 3193.396087,8765.036620 3186.198546,8760.988442 3181.020157,8770.102626 3168.003748,8762.794633 3159.101822,8778.465185 3172.202518,8785.827333 3161.581237,8804.524768"/>
    <poly id="154166110" type="building.yes" color="255,230,230" fill="1" layer="-1.00" shape="3361.039962,8055.518626 3370.212761,8019.939648 3344.204181,8013.320841 3353.248494,7978.231117 3378.010592,7984.535896 3382.137794,7968.525356 3413.551193,7976.515815 3407.301724,8000.798335 3412.549445,8002.128051 3405.628670,8029.023368 3400.894124,8027.819037 3391.741272,8063.331288 3361.039962,8055.518626"/>
    <poly id="154166113" type="building.yes" color="255,230,230" fill="1" layer="-1.00" shape="3414.513841,8624.104820 3437.595723,8585.519525 3481.809198,8610.889392 3460.638934,8651.019560 3414.513841,8624.104820"/>
    <poly id="154166114" type="building.yes" color="255,230,230" fill="1" layer="-1.00" shape="3458.387002,7961.901729 3501.278730,7972.680999 3505.481968,7956.170861 3462.590277,7945.391606 3458.387002,7961.901729"/>
    <poly id="154166115" type="building.yes" color="255,230,230" fill="1" layer="-1.00" shape="3358.871247,7941.098131 3407.522419,7953.244152 3410.866132,7940.025269 3362.214831,7927.868187 3358.871247,7941.098131"/>
    <poly id="154166116" type="building.industrial" color="255,230,230" fill="1" layer="-1.00" shape="3343.105616,8753.272402 3308.877120,8733.449048 3322.143228,8710.802761 3314.712395,8706.503299 3316.494142,8703.464405 3302.779669,8695.524317 3304.907559,8691.893303 3287.120026,8681.609339 3284.136965,8686.703891 3272.917064,8680.211450 3281.041405,8666.324435 3293.629373,8673.594315 3305.408648,8653.462016 3290.494387,8644.830623 3313.238466,8605.962500 3357.875771,8631.780589 3350.901777,8643.690265 3355.059298,8646.099338 3363.081818,8632.390989 3444.653119,8679.620664 3374.830531,8798.785297 3331.234503,8773.550061 3343.105616,8753.272402"/>
    <poly id="154913980" type="amenity.university" color="237,199,199" fill="0" layer="-1.00" shape="2777.153841,8840.468226 2771.448947,8897.794146 2746.676414,9172.007547 2750.896945,9178.724540 2764.552471,9174.781047 2790.226641,9179.135156 2807.709331,9174.991659 2842.574775,9157.734244 2849.635811,9145.314065 2851.336529,9133.160600 2869.485162,8943.434366 2886.437687,8766.153181 2891.577741,8730.877349 2790.784343,8683.594115"/>
    <poly id="154913982" type="waterway.stream" color="181,209,209" fill="0" layer="-4.00" shape="2081.187215,8704.471539 2070.073079,8705.907434"/>
    <poly id="154913983" type="waterway.stream" color="181,209,209" fill="0" layer="-4.00" shape="2344.483546,9445.631317 2335.122908,9432.099818 2319.238112,9420.612972 2301.458317,9413.717202 2286.221375,9401.567373 2273.451658,9378.980895 2260.253388,9371.364725 2245.579003,9352.704879 2242.798619,9341.680245 2235.342673,9324.210984 2222.611044,9304.226851 2210.875692,9274.558582 2207.709651,9260.704045 2200.529657,9252.844960 2192.008463,9244.617772 2186.923921,9233.028633 2185.789892,9221.824906 2176.165149,9200.189362 2156.720085,9181.421847 2156.481794,9165.087813 2135.446316,9149.610983 2117.792704,9140.608730 2088.627143,9119.380014 2078.891407,9109.442598 2065.919329,9102.288215 2054.714837,9103.271259 2046.867316,9091.135343 2021.731359,9075.707115 2009.418330,9057.920944 2001.568081,9052.752025 1983.666962,9030.339902 1978.144853,9028.094394"/>
    <poly id="154914002" type="natural.wetland" color="181,209,209" fill="1" layer="-4.00" shape="2090.448325,8770.594741 2080.473864,8767.173679 2078.694959,8763.267549 2073.368146,8757.951103 2074.087514,8753.609785 2068.775273,8747.861151 2064.720836,8748.928231 2060.249820,8744.330333 2059.261943,8740.279749 2061.302548,8737.802128 2063.612298,8736.605428 2066.430248,8726.606752 2069.537477,8725.708555 2069.077486,8722.791127 2071.580077,8720.506138 2068.678997,8718.366429 2067.340060,8716.004560 2065.355216,8720.873845 2063.912074,8719.953411 2064.847186,8713.947506 2070.297883,8712.018260 2072.361479,8708.255453 2081.187215,8704.471539 2070.073079,8705.907434 2066.154152,8701.954986 2080.790414,8692.293421 2090.791978,8688.990780 2097.120922,8675.728755 2093.202427,8657.498981 2104.341062,8637.000430 2103.084414,8623.826912 2104.453259,8618.224496 2110.769960,8613.424918 2109.946061,8607.023771 2117.758154,8602.434974 2118.044628,8588.452526 2116.559303,8581.064164 2126.611737,8583.398580 2138.160981,8588.901119 2146.733636,8596.385436 2166.204352,8601.218552 2175.932086,8608.475551 2191.961029,8613.447478 2205.644267,8612.860101 2221.868717,8617.640851 2235.544730,8620.132766 2248.305097,8614.231130 2258.233803,8619.524649 2250.149609,8628.348630 2256.567090,8637.603338 2282.870438,8646.523425 2294.029723,8636.746274 2307.621118,8634.155349 2297.640426,8621.729480 2298.781476,8611.965679 2316.932748,8608.621435 2330.943040,8614.708189 2337.868733,8625.173844 2359.325355,8627.352666 2371.552249,8637.087387 2387.475660,8646.258601 2364.957499,8652.856668 2350.572036,8646.808644 2333.773822,8658.484691 2322.260099,8657.567340 2313.822736,8661.500785 2346.141513,8672.858344 2335.099950,8674.260128 2328.063263,8681.208032 2304.272373,8676.404934 2293.777658,8675.948965 2275.275771,8679.586277 2269.301663,8687.836721 2250.232962,8689.820835 2246.214504,8694.066332 2234.341790,8695.723859 2217.542660,8693.044918 2187.108542,8707.135078 2168.404025,8725.495608 2150.845073,8733.682445 2127.417852,8741.644745 2112.950945,8763.631777 2120.810191,8776.576052 2109.637939,8799.068824 2090.677486,8813.489824 2067.544628,8813.738642 2070.757814,8802.216752 2068.993281,8795.718563 2071.789319,8793.517905 2072.119155,8789.658550 2075.471696,8785.544655 2080.274300,8784.256210 2079.163702,8781.093519 2080.066677,8776.461539 2086.700726,8772.665291 2086.772175,8771.124646 2089.983721,8771.653765 2090.448325,8770.594741"/>
    <poly id="154914005" type="natural.wetland" color="181,209,209" fill="1" layer="-4.00" shape="1879.807774,8978.100708 1895.568090,8975.367779 1904.149880,8982.043525 1914.885172,8986.107109 1918.093648,8990.003493 1924.572961,8992.766726 1926.144841,8997.506606 1929.443441,8998.278168 1929.646554,9002.905085 1940.694793,9009.821770 1954.483188,9027.165574 1963.137122,9030.196152 1967.091987,9037.326993 1979.516949,9044.899239 1992.475299,9048.254718 2001.568081,9052.752025 1993.939666,9034.166508 1995.140585,9029.208983 1999.281672,9026.922275 2014.377439,9029.426929 2034.075037,9028.320058 2047.577818,9034.658150 2046.652871,9027.051163 2055.327577,9021.486207 2050.307518,9015.024417 2056.658616,8999.690843 2067.855125,8998.165168 2071.547801,8988.031902 2065.679729,8979.954273 2066.386486,8972.600395 2061.374348,8966.681231 2062.091540,8959.327201 2053.501613,8952.097834 2044.083523,8938.888277 2043.069669,8958.818201 2040.449955,8969.533931 2041.640787,8976.051566 2032.517815,8989.520436 2026.468414,9004.074260 2018.631310,9013.403997 2011.786710,9013.503801 2009.045363,9019.458500 2004.219498,9019.872230 1998.662451,9014.514807 1992.657947,9015.687829 1981.809598,9003.872550 1979.199243,8990.895994 1972.400954,8978.423545 1970.047114,8967.292985 1969.052558,8948.466755 1964.471861,8943.504913 1950.832587,8944.977524 1943.474754,8949.958342 1941.398740,8955.737187 1950.424982,8973.571306 1950.382022,8982.078504 1956.120836,8988.452306 1958.765804,9000.941004 1978.144853,9028.094394 1968.944524,9023.377120 1961.119478,9012.060491 1951.453788,9001.191590 1951.225350,8991.248434 1941.841055,8986.079703 1940.915587,8989.172396 1938.205698,8989.411271 1939.204673,8984.201941 1936.978278,8982.528650 1933.493999,8986.201379 1931.745988,8990.856737 1928.421651,8985.455673 1924.143287,8983.336013 1918.634393,8983.427387 1919.567981,8979.459553 1914.839779,8976.548957 1912.821926,8979.159137 1908.886279,8979.072510 1906.738182,8974.894840 1900.711474,8975.259587 1894.747397,8969.896992 1879.807774,8978.100708"/>
    <poly id="154979184" type="building.commercial" color="255,230,230" fill="1" layer="-1.00" shape="2452.652060,9713.338882 2385.256795,9647.111936 2476.355085,9555.521030 2569.247887,9646.828480 2540.654585,9675.590445 2529.780219,9664.905591 2507.398885,9687.396175 2511.549617,9691.478087 2503.609341,9699.469307 2509.560107,9705.319290 2472.628580,9726.272268 2456.025837,9709.955652 2452.652060,9713.338882"/>
    <poly id="154979184#1" type="shop.supermarket" color="237,199,255" fill="1" layer="-1.00" shape="2452.652060,9713.338882 2385.256795,9647.111936 2476.355085,9555.521030 2569.247887,9646.828480 2540.654585,9675.590445 2529.780219,9664.905591 2507.398885,9687.396175 2511.549617,9691.478087 2503.609341,9699.469307 2509.560107,9705.319290 2472.628580,9726.272268 2456.025837,9709.955652 2452.652060,9713.338882"/>
    <poly id="154979185" type="waterway.stream" color="181,209,209" fill="0" layer="-4.00" shape="3149.921423,8854.915797 3028.914802,8807.121325"/>
    <poly id="154979186" type="waterway.stream" color="181,209,209" fill="0" layer="-4.00" shape="3028.914802,8807.121325 3018.262520,8803.755016 3007.646342,8803.567084 3001.877905,8795.909171 2993.312888,8790.407782 2981.642690,8790.933076 2969.571600,8787.598586 2960.261116,8779.649147 2946.431761,8776.683746 2935.404126,8772.625074 2923.785545,8775.962966 2910.650239,8772.644012 2906.352387,8768.486827"/>
    <poly id="154979191" type="building.yes" color="255,230,230" fill="1" layer="-1.00" shape="1741.563135,8518.268417 1737.445079,8507.086013 1744.794577,8504.409248 1738.481832,8487.277642 1705.876195,8499.150102 1713.025682,8518.562312 1721.797320,8515.366409 1732.988946,8545.762754 1776.400950,8529.955794 1768.480109,8508.461428 1741.563135,8518.268417"/>
    <poly id="154979192" type="building.yes" color="255,230,230" fill="1" layer="-1.00" shape="1976.578793,8549.223640 2023.791663,8531.433328 2017.010014,8513.655129 1996.335746,8521.455289 1994.935718,8517.765155 2005.646602,8513.732251 2000.774439,8500.943752 1971.568712,8511.947508 1976.440854,8524.736013 1989.082210,8519.977164 1990.492509,8523.656073 1969.797353,8531.456502 1976.578793,8549.223640"/>
    <poly id="154979193" type="building.yes" color="255,230,230" fill="1" layer="-1.00" shape="1667.367225,8594.368634 1704.124395,8580.918356 1697.530241,8563.093033 1666.513508,8574.443821 1664.123294,8567.965798 1677.368760,8563.120862 1670.427217,8544.370188 1635.549068,8557.139539 1642.556239,8576.099716 1660.244533,8569.628344 1662.504059,8575.731678 1660.708086,8576.378104 1667.367225,8594.368634"/>
    <poly id="154979194" type="building.yes" color="255,230,230" fill="1" layer="-1.00" shape="1841.883648,8521.968106 1888.027532,8504.581425 1882.667552,8490.537321 1866.871036,8496.482936 1865.091499,8491.812539 1880.618031,8485.959470 1875.431454,8472.355887 1830.221827,8489.396640 1835.408370,8503.000233 1852.086906,8496.709505 1853.866601,8501.390977 1836.534138,8507.923839 1841.883648,8521.968106"/>
    <poly id="154979195" type="building.yes" color="255,230,230" fill="1" layer="-1.00" shape="1769.064971,8625.240952 1804.809615,8611.771979 1804.006709,8609.668114 1768.262069,8623.137085 1763.368720,8610.315618 1798.801942,8596.961954 1797.488972,8593.514218 1773.638479,8602.501220 1767.052149,8585.218538 1816.641970,8566.530255 1823.228347,8583.812924 1802.636753,8591.567318 1803.960156,8595.014902 1838.054494,8582.168015 1842.948057,8595.000541 1808.531868,8607.962887 1809.334775,8610.066752 1843.750968,8597.104405 1848.655456,8609.969998 1773.969567,8638.117635 1769.064971,8625.240952"/>
    <poly id="154979196" type="building.yes" color="255,230,230" fill="1" layer="-1.00" shape="1732.277474,8630.883047 1727.384313,8618.072646 1707.706123,8625.492399 1711.232374,8634.734009 1697.044497,8640.080047 1693.528687,8630.838283 1666.003964,8641.207787 1670.886646,8654.018353 1697.228250,8644.098050 1699.495811,8650.035120 1686.169391,8655.058465 1689.999871,8665.126366 1704.115058,8659.803548 1707.771676,8669.397701 1693.656481,8674.720521 1698.159337,8686.528676 1712.669084,8681.067191 1709.327134,8672.299174 1723.515036,8666.953128 1726.856993,8675.721143 1741.823383,8670.086835 1737.320337,8658.267615 1722.478515,8663.855801 1718.821889,8654.261650 1733.663703,8648.673467 1729.822765,8638.605725 1715.344361,8644.066773 1713.076634,8638.118630 1732.277474,8630.883047"/>
    <poly id="154979197" type="building.university" color="255,230,230" fill="1" layer="-1.00" shape="2644.801038,8859.516586 2643.314006,8879.154489 2715.829438,8884.551718 2717.305955,8864.913954 2644.801038,8859.516586"/>
    <poly id="154979198" type="building.university" color="255,230,230" fill="1" layer="-1.00" shape="1757.039589,8700.225173 1754.674391,8694.034776 1760.424291,8691.868673 1762.779058,8698.059221 1757.039589,8700.225173"/>
    <poly id="154979199" type="building.yes" color="255,230,230" fill="1" layer="-1.00" shape="1885.114790,8629.785682 1881.232879,8618.345104 1868.376137,8622.652873 1872.247606,8634.093605 1885.114790,8629.785682"/>
    <poly id="154979200" type="building.yes" color="255,230,230" fill="1" layer="-1.00" shape="1730.121123,8468.536585 1725.579076,8456.186274 1681.274474,8472.316260 1685.816491,8484.666579 1730.121123,8468.536585"/>
    <poly id="154979201" type="building.yes" color="255,230,230" fill="1" layer="-1.00" shape="1875.776097,8582.626157 1853.472019,8591.025848 1848.578610,8578.204399 1870.892944,8569.793487 1875.776097,8582.626157"/>
    <poly id="154979202" type="building.yes" color="255,230,230" fill="1" layer="-1.00" shape="2140.519057,8498.761131 2136.345912,8470.234133 2123.287004,8472.119359 2123.722863,8487.686256 2124.014751,8498.392764 2140.519057,8498.761131"/>
    <poly id="154979203" type="building.yes" color="255,230,230" fill="1" layer="-1.00" shape="1874.913360,8602.908296 1905.883799,8591.247659 1910.311014,8602.868580 1879.351150,8614.540145 1874.913360,8602.908296"/>
    <poly id="154979205" type="building.yes" color="255,230,230" fill="1" layer="-1.00" shape="2209.962026,9526.668041 2245.760782,9530.376867 2281.956708,9534.124128 2284.091320,9513.767996 2212.096720,9506.311926 2211.336347,9513.566906 2209.962026,9526.668041"/>
    <poly id="154979206" type="building.yes" color="255,230,230" fill="1" layer="-1.00" shape="2571.174233,8846.614496 2572.695468,8826.455522 2605.604722,8828.909733 2638.513831,8831.352808 2636.992672,8851.511796 2571.174233,8846.614496"/>
    <poly id="154979207" type="building.yes" color="255,230,230" fill="1" layer="-1.00" shape="2500.455953,8841.345488 2501.977431,8821.197603 2529.130042,8823.215483 2556.366295,8825.243175 2554.844880,8845.391071 2500.455953,8841.345488"/>
    <poly id="154979209" type="building.yes" color="255,230,230" fill="1" layer="-1.00" shape="1934.436485,8483.192210 1927.709212,8465.557187 1914.933059,8470.373340 1921.649886,8488.008519 1934.436485,8483.192210"/>
    <poly id="154979210" type="building.yes" color="255,230,230" fill="1" layer="-1.00" shape="2112.957599,8515.168525 2109.699878,8492.875193 2106.442323,8470.592935 2118.834616,8468.794983 2123.722863,8487.686256 2125.349925,8513.370571 2112.957599,8515.168525"/>
    <poly id="154979212" type="building.university" color="255,230,230" fill="1" layer="-1.00" shape="2035.580448,8511.866819 2065.180520,8500.713204 2059.678938,8486.272458 2030.078889,8497.426065 2035.580448,8511.866819"/>
    <poly id="154979213" type="building.yes" color="255,230,230" fill="1" layer="-1.00" shape="1910.939378,8569.375865 1906.802969,8564.817363 1906.197809,8556.950960 1926.277983,8549.912767 1930.721352,8562.641075 1910.939378,8569.375865"/>
    <poly id="154979214" type="building.yes" color="255,230,230" fill="1" layer="-1.00" shape="1876.579012,8584.730020 1881.493957,8597.595455 1859.179588,8606.006377 1854.275092,8593.140786 1876.579012,8584.730020"/>
    <poly id="154979215" type="building.university" color="255,230,230" fill="1" layer="-1.00" shape="2042.793977,8519.902665 2065.627743,8511.339909 2064.867994,8509.335109 2080.529970,8503.468800 2085.587967,8516.830539 2047.092038,8531.248537 2042.793977,8519.902665"/>
    <poly id="154979218" type="building.yes" color="255,230,230" fill="1" layer="-1.00" shape="1745.111844,8471.031868 1733.918343,8441.222601 1744.287496,8437.372061 1747.740062,8446.570432 1754.134008,8444.206641 1761.874806,8464.806455 1745.111844,8471.031868"/>
    <poly id="155067126" type="natural.wood" color="140,196,107" fill="1" layer="-4.00" shape="1220.027688,8976.992693 1220.408247,8980.199262 1216.782048,8982.733040 1190.129504,8986.387890 1180.512757,8990.337865 1112.808424,8994.223620 1086.390113,8994.607422 1031.461425,9000.068367 992.316653,9000.825151 981.098027,8997.953183 968.371369,8996.875296 959.249721,8998.270427 941.923173,8995.199138 928.448991,8994.386826 915.427885,8990.278300 885.026887,8978.701950 784.369345,8947.576634 702.245304,8925.729604 690.056082,8916.369824 680.644238,8915.742080 670.503821,8917.406587 663.626879,8915.988889 650.767995,8905.065981 642.556489,8900.134333 633.398274,8899.004458 622.415597,8895.120918 602.292539,8890.616725 598.080522,8885.139715 597.434408,8878.004959 600.583425,8872.066782 608.296469,8871.412213 599.032147,8864.402418 597.177988,8860.320046 598.836434,8854.503167 611.406229,8848.373006 617.471063,8847.044533 625.444578,8839.884469 627.391945,8834.561823 634.471076,8831.933799 649.801219,8841.281285 661.731182,8837.087617 669.641512,8839.243503 678.662849,8848.206192 692.195043,8854.467319 698.885910,8854.569637 701.826361,8847.205636 700.064990,8830.816301 704.340505,8827.719411 711.228341,8829.890111 722.788120,8838.306451 733.104404,8848.767764 741.128988,8859.517071 742.250453,8866.323724 744.877411,8872.599031 744.801396,8878.149297 744.758903,8881.694289 748.397931,8887.954913 755.060443,8891.136799 775.166521,8893.747037 785.154380,8899.550021 795.876267,8903.437246 806.122893,8909.092474 843.605234,8916.767041 853.671204,8917.163679 866.637468,8919.655918 874.239129,8918.515495 884.066911,8919.757362 910.104955,8926.257691 932.427757,8923.408239 937.183984,8918.919786 944.193476,8917.245196 954.816034,8920.037226 978.876689,8920.441031 985.305061,8923.305024 990.471304,8921.180905 1023.490348,8915.418026 1026.485183,8911.088041 1023.903267,8906.484616 1017.758049,8903.716210 1016.558752,8895.869531 1022.101883,8893.828537 1032.039701,8897.616245 1055.486214,8903.877091 1075.234937,8901.995238 1085.331970,8904.528995 1101.999989,8901.783617 1113.920168,8903.382621 1121.930826,8911.717371 1123.055367,8919.443297 1117.757718,8927.605897 1122.902501,8931.906245 1153.039958,8931.800616 1151.088574,8937.555370 1130.533045,8944.245025 1124.837335,8948.713959 1124.237338,8954.105711 1137.897807,8961.992852 1152.792221,8961.433062 1159.485520,8955.952763 1169.715290,8961.153911 1181.156425,8955.637835 1194.002224,8953.424197 1203.407668,8948.580110 1213.522025,8949.429960 1216.221093,8959.935280 1212.558531,8964.275008 1207.105888,8965.362194 1201.258781,8973.056532 1212.227064,8976.651950 1217.295432,8975.692186 1220.027688,8976.992693"/>
    <poly id="155067167" type="natural.wood" color="140,196,107" fill="0" layer="-4.00" shape="1567.449164,9026.977166 1605.981261,9031.433820 1660.359572,9036.900209 1665.246913,9036.408149 1674.414374,9030.991293 1683.549003,9014.720191 1689.522843,9008.574494 1692.530734,9002.283689 1696.286826,8998.640287 1700.176151,8992.680008 1701.917498,8988.279532 1705.771192,8977.723128 1704.370594,8960.375971 1703.561456,8949.245052 1689.484424,8931.406855 1678.980973,8921.757335 1671.125852,8915.525035 1664.426238,8910.527521 1655.184737,8909.421550 1646.949863,8915.810609 1639.549011,8914.256932 1636.071019,8909.046356 1628.406286,8905.137277 1626.811995,8902.435734 1631.881439,8903.702150 1641.255227,8900.276024 1656.916627,8897.921344 1665.376127,8892.625555 1682.567698,8887.136142 1686.467656,8879.757949 1684.116543,8868.084597 1678.870391,8864.716283 1671.983371,8865.481151 1668.992008,8844.956125 1673.569359,8828.197566 1678.875405,8824.930336 1682.807025,8825.460120 1685.857131,8838.552129 1690.397185,8840.014532 1693.060340,8835.135427 1690.207144,8819.083193 1687.222536,8815.504727 1691.724179,8799.998878 1691.631282,8793.620312 1686.874578,8788.029626 1675.122493,8787.226067 1664.774635,8796.138070 1641.527784,8809.336103 1642.570289,8815.711915 1640.846574,8822.039397 1638.022246,8824.450837 1633.199015,8820.024111 1626.761537,8819.408962 1616.845333,8824.282895 1609.554800,8830.303751 1608.126136,8844.712587 1612.689146,8846.318667 1624.942864,8844.301605 1629.781986,8841.218410 1636.211075,8831.222640 1649.613730,8828.557484 1653.201874,8832.016405 1651.938647,8837.716912 1655.199573,8842.354679 1654.251926,8843.210273 1643.745789,8852.722680 1643.157733,8858.922862 1627.781906,8865.836788 1604.373688,8870.109654 1594.332359,8874.276511 1593.277037,8870.603487 1595.352292,8869.066907 1596.558832,8865.205888 1595.621067,8862.439403 1592.609733,8859.891402 1588.803154,8859.348700 1584.064399,8860.724680 1586.850740,8856.419766 1584.114842,8848.418245 1578.342152,8844.005326 1584.536275,8844.391435 1590.658014,8839.805365 1598.968675,8821.419659 1592.039821,8804.972628 1584.173125,8802.240557 1578.966367,8804.442992 1572.226978,8798.858988 1564.582826,8797.076226 1554.161409,8800.938461 1550.721674,8809.107410 1551.575750,8819.030363 1548.305912,8823.098631 1550.109571,8832.298882 1537.611256,8823.963171 1528.116517,8825.530196 1515.717979,8824.049207 1503.966140,8827.565256 1500.569639,8834.404414 1504.600002,8843.871321 1516.261221,8844.166817 1520.686542,8852.088378 1522.625628,8863.424372 1527.540892,8869.156783 1537.280409,8875.084810 1539.318790,8893.242319 1533.066944,8899.646763 1520.369606,8900.584739 1511.542587,8905.010776"/>
    <poly id="155067910" type="waterway.stream" color="181,209,209" fill="0" layer="-4.00" shape="1201.258781,8973.056532 1192.959271,8972.855945 1130.419172,8979.502230 1052.948484,8980.627689 968.812301,8976.931753 878.738516,8961.038107 750.285153,8913.735017 718.700884,8912.653624 701.602407,8907.308183 699.291985,8899.112102 699.415937,8886.073652 688.687350,8882.441220 680.079650,8873.937734 672.532233,8871.621520 664.742893,8866.296095 657.620227,8865.923120 640.565804,8860.732053 621.321791,8859.272160 614.870448,8864.892714 596.129342,8864.289441 577.903812,8860.377976 565.820330,8850.385247 549.297916,8845.175304 525.396201,8839.164069 505.635543,8825.815748 480.923745,8820.070949 453.904530,8814.968742 424.207764,8807.291320 411.111974,8807.370307 374.727824,8795.503226 349.899546,8778.827781 321.652223,8770.342791 274.209344,8765.890554 249.750830,8753.119501 237.948505,8745.226965 223.749187,8738.277370 210.953500,8736.734749 177.047355,8735.985069 138.848874,8727.078960 121.187781,8726.813990 105.548817,8722.056060 78.365243,8717.110735"/>