<?xml version="1.0" encoding="UTF-8"?>

<!-- generated on 2021-06-20 15:40:31 by Eclipse SUMO duarouter Version 1.9.2
<configuration xmlns:xsi="http://www.w3.org/2001/XMLSchema-instance" xsi:noNamespaceSchemaLocation="http://sumo.dlr.de/xsd/duarouterConfiguration.xsd">

    <input>
        <net-file value="/home/diego/PycharmProjects/hadoop-simulation-urban-modbility/2021-06-20-15-40-03/osm.net.xml"/>
        <route-files value="/home/diego/PycharmProjects/hadoop-simulation-urban-modbility/2021-06-20-15-40-03/osm.truck.trips.xml"/>
    </input>

    <output>
        <output-file value="/home/diego/PycharmProjects/hadoop-simulation-urban-modbility/2021-06-20-15-40-03/osm.truck.trips.xml.tmp"/>
        <write-trips value="true"/>
    </output>

    <time>
        <begin value="0"/>
        <end value="600"/>
    </time>

    <report>
        <no-warnings value="true"/>
        <ignore-errors value="true"/>
        <no-step-log value="true"/>
    </report>

</configuration>
-->

<routes xmlns:xsi="http://www.w3.org/2001/XMLSchema-instance" xsi:noNamespaceSchemaLocation="http://sumo.dlr.de/xsd/routes_file.xsd">
    <vType id="truck_truck" vClass="truck"/>
    <trip id="truck0" type="truck_truck" depart="0.00" departLane="best" from="154979278#2" to="-130920003#0"/>
    <trip id="truck1" type="truck_truck" depart="0.59" departLane="best" from="-205860374#1" to="-170773053#3"/>
    <trip id="truck2" type="truck_truck" depart="1.17" departLane="best" from="205860272#0" to="169923270#1"/>
    <trip id="truck3" type="truck_truck" depart="1.76" departLane="best" from="259262949#0" to="-154157943"/>
    <trip id="truck4" type="truck_truck" depart="2.35" departLane="best" from="-915447945#0" to="-141650107#2"/>
    <trip id="truck5" type="truck_truck" depart="2.94" departLane="best" from="-169923334#1" to="153474818#2"/>
    <trip id="truck6" type="truck_truck" depart="3.52" departLane="best" from="-130920004#2" to="-169923277#3"/>
    <trip id="truck7" type="truck_truck" depart="4.11" departLane="best" departSpeed="max" from="155445053#0" to="154166074#1"/>
    <trip id="truck8" type="truck_truck" depart="4.70" departLane="best" from="-170773053#5" to="154797715#2"/>
    <trip id="truck9" type="truck_truck" depart="5.29" departLane="best" departSpeed="max" from="205860491" to="-130882582#3"/>
    <trip id="truck10" type="truck_truck" depart="5.87" departLane="best" from="205860476#3" to="171309448#1"/>
    <trip id="truck11" type="truck_truck" depart="6.46" departLane="best" from="-206785672#2" to="-154797835#0"/>
    <trip id="truck12" type="truck_truck" depart="7.05" departLane="best" departSpeed="max" from="570276149#0" to="-206785677#2"/>
    <trip id="truck13" type="truck_truck" depart="7.63" departLane="best" departSpeed="max" from="-154166076#1" to="-154166029"/>
    <trip id="truck14" type="truck_truck" depart="8.22" departLane="best" from="206785669#3" to="154797779#1"/>
    <trip id="truck15" type="truck_truck" depart="8.81" departLane="best" from="205860476#9" to="191519126#1"/>
    <trip id="truck16" type="truck_truck" depart="9.40" departLane="best" departSpeed="max" from="154157939#0" to="570276163#2"/>
    <trip id="truck17" type="truck_truck" depart="9.98" departLane="best" from="-380698881#3" to="154166101#8"/>
    <trip id="truck18" type="truck_truck" depart="10.57" departLane="best" departSpeed="max" from="205860668#0" to="154797855"/>
    <trip id="truck19" type="truck_truck" depart="11.16" departLane="best" from="225052903#5" to="154300832#2"/>
    <trip id="truck20" type="truck_truck" depart="11.74" departLane="best" from="171309461#0" to="-152907345#2"/>
    <trip id="truck21" type="truck_truck" depart="12.33" departLane="best" from="-171309451#9" to="-205860401#1"/>
    <trip id="truck22" type="truck_truck" depart="12.92" departLane="best" from="-154166025#0" to="-171309452"/>
    <trip id="truck23" type="truck_truck" depart="13.51" departLane="best" from="-154166106#2" to="-205860386#0"/>
    <trip id="truck24" type="truck_truck" depart="14.09" departLane="best" from="154979267#3" to="-361645994#0"/>
    <trip id="truck25" type="truck_truck" depart="14.68" departLane="best" from="-259262958#2" to="-169923317#1"/>
    <trip id="truck26" type="truck_truck" depart="15.27" departLane="best" departSpeed="max" from="-205860365#11" to="441225646#1"/>
    <trip id="truck27" type="truck_truck" depart="15.86" departLane="best" departSpeed="max" from="155221632#0" to="154797805#1"/>
    <trip id="truck28" type="truck_truck" depart="16.44" departLane="best" from="-154979233#0" to="191519125#6"/>
    <trip id="truck29" type="truck_truck" depart="17.03" departLane="best" departSpeed="max" from="-154797882#4" to="-441354964#1"/>
    <trip id="truck30" type="truck_truck" depart="17.62" departLane="best" from="915429559#1" to="154979248"/>
    <trip id="truck31" type="truck_truck" depart="18.20" departLane="best" from="154166075#0" to="169923282#7"/>
    <trip id="truck32" type="truck_truck" depart="18.79" departLane="best" from="206785663#1" to="205860387#1"/>
    <trip id="truck33" type="truck_truck" depart="19.38" departLane="best" from="-171309454#2" to="-141650113#0"/>
    <trip id="truck34" type="truck_truck" depart="19.97" departLane="best" from="-205860475#3" to="-205860365#5"/>
    <trip id="truck35" type="truck_truck" depart="20.55" departLane="best" departSpeed="max" from="-169923312" to="444306144#0"/>
    <trip id="truck36" type="truck_truck" depart="21.14" departLane="best" from="225052928#1" to="-205860612#0"/>
    <trip id="truck37" type="truck_truck" depart="21.73" departLane="best" from="165885103#0" to="-512705363"/>
    <trip id="truck38" type="truck_truck" depart="22.31" departLane="best" from="380698881#5" to="130920001#5"/>
    <trip id="truck39" type="truck_truck" depart="22.90" departLane="best" departSpeed="max" from="-205860361#7" to="-191519125#0"/>
    <trip id="truck40" type="truck_truck" depart="23.49" departLane="best" from="154166105#1" to="-205860359#0"/>
    <trip id="truck41" type="truck_truck" depart="24.08" departLane="best" departSpeed="max" from="154797671#0" to="235423817#1"/>
    <trip id="truck42" type="truck_truck" depart="24.66" departLane="best" from="-512706850#1" to="-169923332#0"/>
    <trip id="truck43" type="truck_truck" depart="25.25" departLane="best" from="923237983" to="153481091"/>
    <trip id="truck44" type="truck_truck" depart="25.84" departLane="best" departSpeed="max" from="-154166074#1" to="-152907362#3"/>
    <trip id="truck45" type="truck_truck" depart="26.43" departLane="best" from="-154168227#2" to="154797901#1"/>
    <trip id="truck46" type="truck_truck" depart="27.01" departLane="best" from="205860454#3" to="-665479101"/>
    <trip id="truck47" type="truck_truck" depart="27.60" departLane="best" from="-153481100#0" to="-441354965#1"/>
    <trip id="truck48" type="truck_truck" depart="28.19" departLane="best" from="917362968" to="154157946#1"/>
    <trip id="truck49" type="truck_truck" depart="28.77" departLane="best" from="570276163#1" to="206785674#0"/>
    <trip id="truck50" type="truck_truck" depart="29.36" departLane="best" from="-130883283#0" to="173550588#5"/>
    <trip id="truck51" type="truck_truck" depart="29.95" departLane="best" from="169923322#1" to="154166035#4"/>
    <trip id="truck52" type="truck_truck" depart="30.54" departLane="best" departSpeed="max" from="-205860365#11" to="154979260#1"/>
    <trip id="truck53" type="truck_truck" depart="31.12" departLane="best" departSpeed="max" from="-154168232#1" to="129213020#5"/>
    <trip id="truck54" type="truck_truck" depart="31.71" departLane="best" from="130920001#6" to="472174220#1"/>
    <trip id="truck55" type="truck_truck" depart="32.30" departLane="best" departSpeed="max" from="225052928#0" to="-205860359#0"/>
    <trip id="truck56" type="truck_truck" depart="32.88" departLane="best" from="153474800#0" to="-155035452"/>
    <trip id="truck57" type="truck_truck" depart="33.47" departLane="best" from="380698878" to="206785706#4"/>
    <trip id="truck58" type="truck_truck" depart="34.06" departLane="best" from="-205860418#2" to="154979241#4"/>
    <trip id="truck59" type="truck_truck" depart="34.65" departLane="best" from="205860372#1" to="154166040#4"/>
    <trip id="truck60" type="truck_truck" depart="35.23" departLane="best" from="205860400#2" to="154157949#3"/>
    <trip id="truck61" type="truck_truck" depart="35.82" departLane="best" from="-129213020#2" to="-205860675#1"/>
    <trip id="truck62" type="truck_truck" depart="36.41" departLane="best" from="-130920000#1" to="380698886"/>
    <trip id="truck64" type="truck_truck" depart="37.58" departLane="best" from="-205860456#2" to="-153474811#2"/>
    <trip id="truck65" type="truck_truck" depart="38.17" departLane="best" from="225052930#4" to="446749127"/>
    <trip id="truck66" type="truck_truck" depart="38.76" departLane="best" from="-154166040#7" to="152907262#0"/>
    <trip id="truck67" type="truck_truck" depart="39.34" departLane="best" from="-153481118#2" to="205860362"/>
    <trip id="truck68" type="truck_truck" depart="39.93" departLane="best" from="205860382#0" to="-154300832#2"/>
    <trip id="truck69" type="truck_truck" depart="40.52" departLane="best" from="152850233#15" to="154166101#1"/>
    <trip id="truck70" type="truck_truck" depart="41.11" departLane="best" departSpeed="max" from="-205860362" to="206789198#2"/>
    <trip id="truck71" type="truck_truck" depart="41.69" departLane="best" from="-915689633#0" to="-169923322#2"/>
    <trip id="truck72" type="truck_truck" depart="42.28" departLane="best" from="154157945" to="191519126#1"/>
    <trip id="truck73" type="truck_truck" depart="42.87" departLane="best" from="-169923271#2" to="-205860491"/>
    <trip id="truck74" type="truck_truck" depart="43.45" departLane="best" from="915811867#6" to="155035451"/>
    <trip id="truck75" type="truck_truck" depart="44.04" departLane="best" from="130883281#1" to="153481118#2"/>
    <trip id="truck76" type="truck_truck" depart="44.63" departLane="best" departSpeed="max" from="-154300832#3" to="-171309448#1"/>
    <trip id="truck77" type="truck_truck" depart="45.22" departLane="best" from="-206785669#0" to="154797696#3"/>
    <trip id="truck78" type="truck_truck" depart="45.80" departLane="best" from="-171309463#0" to="-169923334#0"/>
    <trip id="truck79" type="truck_truck" depart="46.39" departLane="best" from="-154157918#3" to="154797913#4"/>
    <trip id="truck80" type="truck_truck" depart="46.98" departLane="best" from="-171309454#2" to="259262956#3"/>
    <trip id="truck81" type="truck_truck" depart="47.57" departLane="best" from="222976358#0" to="-153481113#2"/>
    <trip id="truck82" type="truck_truck" depart="48.15" departLane="best" from="-173550587#0" to="169359373#0"/>
    <trip id="truck83" type="truck_truck" depart="48.74" departLane="best" from="-169923318#1" to="-154797679#3"/>
    <trip id="truck84" type="truck_truck" depart="49.33" departLane="best" from="446749128#7" to="154247169#1"/>
    <trip id="truck85" type="truck_truck" depart="49.91" departLane="best" departSpeed="max" from="152850233#0" to="205860399#1"/>
    <trip id="truck86" type="truck_truck" depart="50.50" departLane="best" from="205860477" to="-157935618#3"/>
    <trip id="truck87" type="truck_truck" depart="51.09" departLane="best" from="-154166101#7" to="-915689632"/>
    <trip id="truck88" type="truck_truck" depart="51.68" departLane="best" from="-915689633#2" to="141650072#6"/>
    <trip id="truck89" type="truck_truck" depart="52.26" departLane="best" departSpeed="max" from="191519133#0" to="169923250#1"/>
    <trip id="truck90" type="truck_truck" depart="52.85" departLane="best" from="-570276151#2" to="-206785682"/>
    <trip id="truck91" type="truck_truck" depart="53.44" departLane="best" from="225052903#5" to="-191519125#6"/>
    <trip id="truck92" type="truck_truck" depart="54.02" departLane="best" from="-155445054#0" to="130883285#2"/>
    <trip id="truck94" type="truck_truck" depart="55.20" departLane="best" from="130883285#2" to="206785674#2"/>
    <trip id="truck95" type="truck_truck" depart="55.79" departLane="best" from="154166035#8" to="-153474792#1"/>
    <trip id="truck96" type="truck_truck" depart="56.37" departLane="best" from="926532046" to="205860645#1"/>
    <trip id="truck97" type="truck_truck" depart="56.96" departLane="best" departSpeed="max" from="570276162#0" to="380698883#1"/>
    <trip id="truck98" type="truck_truck" depart="57.55" departLane="best" from="206785672#1" to="-154979237#0"/>
    <trip id="truck99" type="truck_truck" depart="58.14" departLane="best" from="152907299#1" to="-169923326#1"/>
    <trip id="truck100" type="truck_truck" depart="58.72" departLane="best" from="-570276149#2" to="-153474811#4"/>
    <trip id="truck101" type="truck_truck" depart="59.31" departLane="best" from="-380698881#4" to="915429557#0"/>
    <trip id="truck102" type="truck_truck" depart="59.90" departLane="best" departSpeed="max" from="-205860362" to="205860398#2"/>
    <trip id="truck103" type="truck_truck" depart="60.48" departLane="best" from="130920002#1" to="-665479102"/>
    <trip id="truck104" type="truck_truck" depart="61.07" departLane="best" departSpeed="max" from="570276149#0" to="91885090"/>
    <trip id="truck105" type="truck_truck" depart="61.66" departLane="best" from="154166066#1" to="173550578#1"/>
    <trip id="truck106" type="truck_truck" depart="62.25" departLane="best" from="-154797835#1" to="-205860454#0"/>
    <trip id="truck107" type="truck_truck" depart="62.83" departLane="best" from="570276160" to="154305445#1"/>
    <trip id="truck108" type="truck_truck" depart="63.42" departLane="best" from="154157949#2" to="205860311#18"/>
    <trip id="truck109" type="truck_truck" depart="64.01" departLane="best" from="-153474818#1" to="154797679#3"/>
    <trip id="truck110" type="truck_truck" depart="64.59" departLane="best" from="153474811#1" to="206785643#5"/>
    <trip id="truck111" type="truck_truck" depart="65.18" departLane="best" departSpeed="max" from="-154797855" to="570276148#2"/>
    <trip id="truck112" type="truck_truck" depart="65.77" departLane="best" from="-154166025#1" to="-155221632#0"/>
    <trip id="truck113" type="truck_truck" depart="66.36" departLane="best" from="154797715#3" to="169923266#2"/>
    <trip id="truck114" type="truck_truck" depart="66.94" departLane="best" from="-173550553" to="-154247168#0"/>
    <trip id="truck115" type="truck_truck" depart="67.53" departLane="best" departSpeed="max" from="247366415#0" to="-191519125#0"/>
    <trip id="truck116" type="truck_truck" depart="68.12" departLane="best" from="154797715#1" to="154797859"/>
    <trip id="truck117" type="truck_truck" depart="68.71" departLane="best" departSpeed="max" from="-915429556#1" to="154797679#1"/>
    <trip id="truck118" type="truck_truck" depart="69.29" departLane="best" from="154154167#2" to="439478173#0"/>
    <trip id="truck119" type="truck_truck" depart="69.88" departLane="best" departSpeed="max" from="-169923277#9" to="173550556"/>
    <trip id="truck120" type="truck_truck" depart="70.47" departLane="best" from="-173550588#1" to="-512705363"/>
    <trip id="truck121" type="truck_truck" depart="71.05" departLane="best" from="169923282#1" to="-205860455#0"/>
    <trip id="truck122" type="truck_truck" depart="71.64" departLane="best" from="-205860485#0" to="205860341#0"/>
    <trip id="truck123" type="truck_truck" depart="72.23" departLane="best" from="-154157932#1" to="130920001#3"/>
    <trip id="truck124" type="truck_truck" depart="72.82" departLane="best" from="924066531" to="923237983"/>
    <trip id="truck125" type="truck_truck" depart="73.40" departLane="best" from="-154157937#1" to="-169923326#0"/>
    <trip id="truck126" type="truck_truck" depart="73.99" departLane="best" departSpeed="max" from="-205860362" to="380698889#1"/>
    <trip id="truck127" type="truck_truck" depart="74.58" departLane="best" from="235423798#1" to="225052909#5"/>
    <trip id="truck128" type="truck_truck" depart="75.16" departLane="best" from="-259262958#0" to="-154797869#0"/>
    <trip id="truck129" type="truck_truck" depart="75.75" departLane="best" from="205860672#2" to="171309451#3"/>
    <trip id="truck130" type="truck_truck" depart="76.34" departLane="best" from="154797815#1" to="915429560#0"/>
    <trip id="truck131" type="truck_truck" depart="76.93" departLane="best" from="161884210#1" to="-130882583#3"/>
    <trip id="truck132" type="truck_truck" depart="77.51" departLane="best" from="205860558" to="-205860454#6"/>
    <trip id="truck133" type="truck_truck" depart="78.10" departLane="best" departSpeed="max" from="169923256#0" to="441354964#7"/>
    <trip id="truck134" type="truck_truck" depart="78.69" departLane="best" from="-154797732#3" to="-154168218#2"/>
    <trip id="truck135" type="truck_truck" depart="79.28" departLane="best" from="-154168222#1" to="154166105#1"/>
    <trip id="truck136" type="truck_truck" depart="79.86" departLane="best" from="173550588#1" to="-169923288#1"/>
    <trip id="truck137" type="truck_truck" depart="80.45" departLane="best" from="154979262#1" to="-205860359#2"/>
    <trip id="truck138" type="truck_truck" depart="81.04" departLane="best" from="152907325#2" to="259262956#2"/>
    <trip id="truck139" type="truck_truck" depart="81.62" departLane="best" from="206785665#3" to="-154166023#1"/>
    <trip id="truck140" type="truck_truck" depart="82.21" departLane="best" from="-915689633#2" to="-205860384#1"/>
    <trip id="truck141" type="truck_truck" depart="82.80" departLane="best" from="154979272#0" to="-205860357#1"/>
    <trip id="truck142" type="truck_truck" depart="83.39" departLane="best" from="205860294#2" to="154166101#7"/>
    <trip id="truck143" type="truck_truck" depart="83.97" departLane="best" departSpeed="max" from="-926523565" to="-130883281#4"/>
    <trip id="truck144" type="truck_truck" depart="84.56" departLane="best" from="-154157946#0" to="225052920#1"/>
    <trip id="truck145" type="truck_truck" depart="85.15" departLane="best" from="368167200#4" to="154166074#1"/>
    <trip id="truck146" type="truck_truck" depart="85.73" departLane="best" from="205860672#6" to="154797662#4"/>
    <trip id="truck147" type="truck_truck" depart="86.32" departLane="best" departSpeed="max" from="-154797805#1" to="-154300832#0"/>
    <trip id="truck148" type="truck_truck" depart="86.91" departLane="best" from="205860460#2" to="206785674#0"/>
    <trip id="truck149" type="truck_truck" depart="87.50" departLane="best" from="356685802#0" to="-169923318#0"/>
    <trip id="truck151" type="truck_truck" depart="88.67" departLane="best" from="205860409#1" to="225052923#3"/>
    <trip id="truck152" type="truck_truck" depart="89.26" departLane="best" from="-570276155" to="154797861#1"/>
    <trip id="truck153" type="truck_truck" depart="89.85" departLane="best" from="-154797835#0" to="380698887#0"/>
    <trip id="truck154" type="truck_truck" depart="90.43" departLane="best" from="225052909#6" to="62279855#2"/>
    <trip id="truck155" type="truck_truck" depart="91.02" departLane="best" from="205860526#0" to="225052913#1"/>
    <trip id="truck157" type="truck_truck" depart="92.19" departLane="best" from="-206785643#2" to="380698887#4"/>
    <trip id="truck158" type="truck_truck" depart="92.78" departLane="best" from="205860474#2" to="206785675#3"/>
    <trip id="truck159" type="truck_truck" depart="93.37" departLane="best" from="205860526#0" to="-205860361#6"/>
    <trip id="truck160" type="truck_truck" depart="93.96" departLane="best" from="205860439#1" to="-154166101#1"/>
    <trip id="truck161" type="truck_truck" depart="94.54" departLane="best" from="225052925#2" to="206785669#3"/>
    <trip id="truck162" type="truck_truck" depart="95.13" departLane="best" from="-171309448#16" to="205860476#8"/>
    <trip id="truck163" type="truck_truck" depart="95.72" departLane="best" from="141650072#1" to="-205860463#0"/>
    <trip id="truck164" type="truck_truck" depart="96.30" departLane="best" from="205860459" to="-171309448#7"/>
    <trip id="truck165" type="truck_truck" depart="96.89" departLane="best" from="-130920002#0" to="-169923266#0"/>
    <trip id="truck166" type="truck_truck" depart="97.48" departLane="best" from="-205860672#2" to="206785675#3"/>
    <trip id="truck167" type="truck_truck" depart="98.07" departLane="best" from="570276154#3" to="-205860387#0"/>
    <trip id="truck168" type="truck_truck" depart="98.65" departLane="best" from="155035471" to="-512706850#0"/>
    <trip id="truck169" type="truck_truck" depart="99.24" departLane="best" from="815116747" to="154166035#1"/>
    <trip id="truck170" type="truck_truck" depart="99.83" departLane="best" from="460223841#6" to="-154168218#2"/>
    <trip id="truck171" type="truck_truck" depart="100.42" departLane="best" from="570276162#1" to="-155035451"/>
    <trip id="truck172" type="truck_truck" depart="101.00" departLane="best" departSpeed="max" from="570276152#0" to="-205860360#2"/>
    <trip id="truck174" type="truck_truck" depart="102.18" departLane="best" departSpeed="max" from="191519133#0" to="-205860566"/>
    <trip id="truck175" type="truck_truck" depart="102.76" departLane="best" from="154797776#1" to="153481100#0"/>
    <trip id="truck176" type="truck_truck" depart="103.35" departLane="best" from="-441225646#1" to="154300830#2"/>
    <trip id="truck177" type="truck_truck" depart="103.94" departLane="best" from="-205860305#5" to="173498516#3"/>
    <trip id="truck178" type="truck_truck" depart="104.53" departLane="best" from="-129213020#6" to="380698881#5"/>
    <trip id="truck179" type="truck_truck" depart="105.11" departLane="best" departSpeed="max" from="154157943" to="173550588#0"/>
    <trip id="truck180" type="truck_truck" depart="105.70" departLane="best" from="205860305#2" to="169923246#2"/>
    <trip id="truck181" type="truck_truck" depart="106.29" departLane="best" departSpeed="max" from="-225052934" to="-153481111#4"/>
    <trip id="truck182" type="truck_truck" depart="106.87" departLane="best" from="169923256#3" to="-206785664#1"/>
    <trip id="truck183" type="truck_truck" depart="107.46" departLane="best" from="-205860474#4" to="205860673#1"/>
    <trip id="truck184" type="truck_truck" depart="108.05" departLane="best" from="173550588#9" to="-205860455#0"/>
    <trip id="truck185" type="truck_truck" depart="108.64" departLane="best" from="-205860461#1" to="-570276152#0"/>
    <trip id="truck186" type="truck_truck" depart="109.22" departLane="best" from="-570276151#1" to="-205860435#0"/>
    <trip id="truck187" type="truck_truck" depart="109.81" departLane="best" from="-154797679#8" to="-62279855#1"/>
    <trip id="truck188" type="truck_truck" depart="110.40" departLane="best" from="472174220#1" to="169923270#3"/>
    <trip id="truck189" type="truck_truck" depart="110.99" departLane="best" from="368162348" to="154797830"/>
    <trip id="truck190" type="truck_truck" depart="111.57" departLane="best" departSpeed="max" from="-205860425#5" to="154166076#1"/>
    <trip id="truck191" type="truck_truck" depart="112.16" departLane="best" from="-129213020#1" to="-205860399#0"/>
    <trip id="truck192" type="truck_truck" depart="112.75" departLane="best" from="129213040#1" to="154342287"/>
    <trip id="truck193" type="truck_truck" depart="113.33" departLane="best" from="162945054#1" to="130920950#4"/>
    <trip id="truck194" type="truck_truck" depart="113.92" departLane="best" from="130883284#2" to="-169923326#1"/>
    <trip id="truck195" type="truck_truck" depart="114.51" departLane="best" departSpeed="max" from="152850233#0" to="245665886"/>
    <trip id="truck196" type="truck_truck" depart="115.10" departLane="best" from="205860460#1" to="-154979246#2"/>
    <trip id="truck197" type="truck_truck" depart="115.68" departLane="best" from="-154166040#4" to="153481113#2"/>
    <trip id="truck198" type="truck_truck" depart="116.27" departLane="best" from="154979258#1" to="-206785674#2"/>
    <trip id="truck199" type="truck_truck" depart="116.86" departLane="best" from="205860575#1" to="205860311#8"/>
    <trip id="truck200" type="truck_truck" depart="117.44" departLane="best" from="169923282#6" to="-171309448#1"/>
    <trip id="truck201" type="truck_truck" depart="118.03" departLane="best" departSpeed="max" from="-169923266#2" to="-130920002#3"/>
    <trip id="truck202" type="truck_truck" depart="118.62" departLane="best" from="-191519133#5" to="141650129#7"/>
    <trip id="truck203" type="truck_truck" depart="119.21" departLane="best" from="-62277607#0" to="154797913#2"/>
    <trip id="truck204" type="truck_truck" depart="119.79" departLane="best" departSpeed="max" from="-159803128#1" to="170773053#2"/>
    <trip id="truck205" type="truck_truck" depart="120.38" departLane="best" departSpeed="max" from="153474792#0" to="-173550588#4"/>
    <trip id="truck206" type="truck_truck" depart="120.97" departLane="best" from="166907800#0" to="-130882581#3"/>
    <trip id="truck207" type="truck_truck" depart="121.56" departLane="best" from="205860353#3" to="205860374#1"/>
    <trip id="truck208" type="truck_truck" depart="122.14" departLane="best" from="-154168218#3" to="-689528679#3"/>
    <trip id="truck209" type="truck_truck" depart="122.73" departLane="best" from="-154979262#1" to="527267087#2"/>
    <trip id="truck210" type="truck_truck" depart="123.32" departLane="best" from="153481117#1" to="-153474792#0"/>
    <trip id="truck212" type="truck_truck" depart="124.49" departLane="best" from="130920003#1" to="205860443#3"/>
    <trip id="truck213" type="truck_truck" depart="125.08" departLane="best" departSpeed="max" from="169923277#0" to="915447945#0"/>
    <trip id="truck214" type="truck_truck" depart="125.67" departLane="best" from="154797715#4" to="460222371#1"/>
    <trip id="truck215" type="truck_truck" depart="126.25" departLane="best" from="247366429#0" to="154797814#1"/>
    <trip id="truck216" type="truck_truck" depart="126.84" departLane="best" from="173550588#7" to="153474816"/>
    <trip id="truck217" type="truck_truck" depart="127.43" departLane="best" from="205860668#4" to="154166076#1"/>
    <trip id="truck218" type="truck_truck" depart="128.01" departLane="best" from="29011863#5" to="205860305#1"/>
    <trip id="truck219" type="truck_truck" depart="128.60" departLane="best" from="152850233#12" to="-205860305#5"/>
    <trip id="truck220" type="truck_truck" depart="129.19" departLane="best" from="-191519140#7" to="154979235#1"/>
    <trip id="truck221" type="truck_truck" depart="129.78" departLane="best" from="205860382#0" to="154154170#0"/>
    <trip id="truck222" type="truck_truck" depart="130.36" departLane="best" departSpeed="max" from="154979237#0" to="-205860381#0"/>
    <trip id="truck223" type="truck_truck" depart="130.95" departLane="best" from="-154166022#1" to="-205860397#0"/>
    <trip id="truck224" type="truck_truck" depart="131.54" departLane="best" from="-205860368#2" to="-205860669#0"/>
    <trip id="truck225" type="truck_truck" depart="132.13" departLane="best" departSpeed="max" from="154157948#0" to="-154797696#1"/>
    <trip id="truck226" type="truck_truck" depart="132.71" departLane="best" departSpeed="max" from="171309464#0" to="-153481090#0"/>
    <trip id="truck227" type="truck_truck" depart="133.30" departLane="best" from="-570276159#0" to="154166060#0"/>
    <trip id="truck228" type="truck_truck" depart="133.89" departLane="best" from="-665479103" to="-169923311#2"/>
    <trip id="truck229" type="truck_truck" depart="134.47" departLane="best" from="-915429557#1" to="259262956#1"/>
    <trip id="truck230" type="truck_truck" depart="135.06" departLane="best" departSpeed="max" from="154797671#0" to="169923334#1"/>
    <trip id="truck231" type="truck_truck" depart="135.65" departLane="best" from="206785706#4" to="205860367#4"/>
    <trip id="truck232" type="truck_truck" depart="136.24" departLane="best" from="-380698883#4" to="-130882582#1"/>
    <trip id="truck233" type="truck_truck" depart="136.82" departLane="best" from="-222977822#1" to="205860352"/>
    <trip id="truck234" type="truck_truck" depart="137.41" departLane="best" from="206785681#5" to="472174220#0"/>
    <trip id="truck235" type="truck_truck" depart="138.00" departLane="best" from="154166025#4" to="154797779#1"/>
    <trip id="truck236" type="truck_truck" depart="138.58" departLane="best" from="-170773053#6" to="-169923332#1"/>
    <trip id="truck237" type="truck_truck" depart="139.17" departLane="best" from="130882582#4" to="-141650072#6"/>
    <trip id="truck238" type="truck_truck" depart="139.76" departLane="best" from="-206785664#0" to="169923277#4"/>
    <trip id="truck239" type="truck_truck" depart="140.35" departLane="best" from="-570276152#1" to="-154979237#0"/>
    <trip id="truck240" type="truck_truck" depart="140.93" departLane="best" from="141650113#5" to="-154300832#0"/>
    <trip id="truck241" type="truck_truck" depart="141.52" departLane="best" from="154880303#2" to="-130920004#4"/>
    <trip id="truck242" type="truck_truck" depart="142.11" departLane="best" from="-446749128#1" to="154168227#2"/>
    <trip id="truck243" type="truck_truck" depart="142.70" departLane="best" from="-130920004#4" to="154979267#0"/>
    <trip id="truck244" type="truck_truck" depart="143.28" departLane="best" departSpeed="max" from="-154797732#7" to="130920003#0"/>
    <trip id="truck245" type="truck_truck" depart="143.87" departLane="best" from="-153474797#10" to="-441354964#0"/>
    <trip id="truck246" type="truck_truck" depart="144.46" departLane="best" departSpeed="max" from="-169923312" to="-206785643#6"/>
    <trip id="truck247" type="truck_truck" depart="145.04" departLane="best" from="205860368#3" to="-441354964#0"/>
    <trip id="truck250" type="truck_truck" depart="146.81" departLane="best" from="-130920000#1" to="154166040#4"/>
    <trip id="truck251" type="truck_truck" depart="147.39" departLane="best" from="947581041" to="-225052928#0"/>