<?xml version="1.0" encoding="UTF-8"?>

<!-- generated on 2021-06-20 18:11:45 by Eclipse SUMO duarouter Version 1.9.2
<configuration xmlns:xsi="http://www.w3.org/2001/XMLSchema-instance" xsi:noNamespaceSchemaLocation="http://sumo.dlr.de/xsd/duarouterConfiguration.xsd">

    <input>
        <net-file value="/home/diego/Documentos/rep/github-pessoal/hadoop-simulation-urban-modbility/2021-06-20-18-11-11/osm.net.xml"/>
        <route-files value="/home/diego/Documentos/rep/github-pessoal/hadoop-simulation-urban-modbility/2021-06-20-18-11-11/osm.pedestrian.trips.xml"/>
    </input>

    <output>
        <output-file value="/home/diego/Documentos/rep/github-pessoal/hadoop-simulation-urban-modbility/2021-06-20-18-11-11/osm.pedestrian.rou.xml"/>
        <alternatives-output value="/home/diego/Documentos/rep/github-pessoal/hadoop-simulation-urban-modbility/2021-06-20-18-11-11/osm.pedestrian.rou.alt.xml"/>
    </output>

    <time>
        <begin value="0"/>
        <end value="150"/>
    </time>

    <report>
        <no-warnings value="true"/>
        <ignore-errors value="true"/>
        <no-step-log value="true"/>
    </report>

</configuration>
-->

<routes xmlns:xsi="http://www.w3.org/2001/XMLSchema-instance" xsi:noNamespaceSchemaLocation="http://sumo.dlr.de/xsd/routes_file.xsd">
    <vType id="ped_pedestrian" vClass="pedestrian"/>
    <person id="ped0" type="ped_pedestrian" depart="0.00">
        <walk edges="205860311#10 -570276157#0 915429560#1 915429560#0 205860311#7 205860311#6 205860311#5 -443083020#0 -443083020#1 419930291#0 -130920000#6 -130920000#5 -130920000#4"/>
    </person>
    <person id="ped1" type="ped_pedestrian" depart="0.60">
        <walk edges="-225052927#2 -155035507#0 -169923334#2 -169923334#4 154979269#3 154979269#2 154979269#1 154979269#0 154979260#2 154979260#1 29011863#1 29011863#0 888777000#3 130886846#0 527267087#0 527267087#1 527267087#2 -130882583#5 -130883284#1 -130883284#0 -130883283#4 -130883283#3 -205860463#0"/>
    </person>
    <person id="ped2" type="ped_pedestrian" depart="1.20">
        <walk edges="206785669#3 -206789198#2 -206789198#1 -206789198#0 206785643#3 206785643#5 206785643#6 206785643#7 191519118 154295978#5 154295979 380698888#1 205860273#1 205860273#2 205860273#3 205860273#4 29011863#5 205860438"/>
    </person>
    <person id="ped3" type="ped_pedestrian" depart="1.80">
        <walk edges="544381453#3 544381454 544381453#0 612403317#1 206785744#2 371834354 130920949#5 -924771937 -924741138#0 205860605 -206785716 924741136#1 154913985 206789206 747896162 -154913984 206785705#4 206785705#3 206785705#2 154157951 -154157925#1 -154157925#2 -154157925#3"/>
    </person>
    <person id="ped4" type="ped_pedestrian" depart="2.40">
        <walk edges="130920001#5 130920001#4 130920001#3 130920001#2 130920001#1 130920002#3 -130920002#2"/>
    </person>
    <person id="ped5" type="ped_pedestrian" depart="3.01">
        <walk edges="-205860456#2 -205860456#3 205860534#6 205860534#5 205860534#4 527267081#1 527267081#0 -205860599 -924756877#0 205860531 608948246 205860624#2 205860624#3 609586986 544381453#4 612403312#0 612403312#1 612403313 206785742 206785712 206785710 205860520 205860605 -206785716 924741136#1 154913985 206789206 747896162 -154913984 206785705#4 206785705#3 154154169 154154165#5 636361511 -170773053#6 -170773053#5 154157918#0"/>
    </person>
    <person id="ped6" type="ped_pedestrian" depart="3.61">
        <walk edges="-130920001#2 -130920001#3 -205860381#0"/>
    </person>
    <person id="ped7" type="ped_pedestrian" depart="4.21">
        <walk edges="-205860460#3 -205860460#2 -205860460#1 -205860460#0 205860459 205860535#5 205860535#6 205860637 62277607#1 62277607#0 -169923282#7 -205860388#0 -205860388#2 225052910#3 -225052910#2 -225052910#1 -225052910#0 -225052927#3 -225052927#2 -225052927#1 225052913#0 225052913#1 380091877#0 380091877#1 169923246#0"/>
    </person>
    <person id="ped8" type="ped_pedestrian" depart="4.81">
        <walk edges="259262958#3 141650129#4 169923311#1 169923311#2 169923311#3 169923311#4 169923282#0 169923282#1 169923282#3 169923282#4 169923282#5 -169923282#6 -62277607#0 -62277607#1 205860637 205860535#6 205860535#5 205860459 -205860460#0 -205860460#1 -205860460#2 245665882#2 -154979241#4 205860278 888777000#0 888777001 130886846#2 205860311#23 205860311#22 205860311#21 205860311#20 130882583#5 130882583#4 130882583#3 130882581#1 -130882581#2"/>
    </person>
    <person id="ped9" type="ped_pedestrian" depart="5.41">
        <walk edges="245665884 -205860460#3 -205860460#2 -205860460#1 -205860460#0 205860459 205860535#5"/>
    </person>
    <person id="ped10" type="ped_pedestrian" depart="6.01">
        <walk edges="911135581#1 -171309448#6 -171309448#5 -171309448#4 -171309448#3 -171309448#2 -171309448#1 -171309448#0 154154167#1 205860311#0 205860311#1 205860311#2 205860311#3 205860311#4 205860311#5 205860311#6 205860311#7 915429560#0 915429560#1 -570276157#0 205860311#10 205860311#11 473405409#0 570276155 570276163#0 570276163#1 -570276158 -570276159#1"/>
    </person>
    <person id="ped11" type="ped_pedestrian" depart="6.61">
        <walk edges="-154157946#1 -154157918#3 -154157918#4 -154157918#5 911191085 171309448#4 171309448#3 171309448#2 171309448#1 171309448#0 154154167#1 205860311#0 205860311#1 -154166025#0 -154166025#1"/>
    </person>
    <person id="ped12" type="ped_pedestrian" depart="7.21">
        <walk edges="419930293#1 527267087#9 527267087#8 527267087#7 527267087#6 527267087#5 527267087#4 527267087#3 527267087#2 527267087#1 527267087#0 130886846#0 888777000#3 29011863#0 29011863#1 154979260#1 154979260#2 -154979269#0 -154979269#1 -154979269#2 -154979269#3 169923334#4"/>
    </person>
    <person id="ped13" type="ped_pedestrian" depart="7.82">
        <walk edges="247366429#1 -169923246#3 169923247#0 169923247#1 169923247#2 380698877#0 380698877#1 153474816 380698889#0 380698889#1 154295978#1 154295978#2 154295978#3 368162348 206785643#7"/>
    </person>
    <person id="ped14" type="ped_pedestrian" depart="8.42">
        <walk edges="154166090#2 154166090#1 154166090#0 205860654#8 205860654#7 205860654#6 205860654#5 205860654#4 205860654#3 205860654#2 205860654#1 205860654#0 205860557 915811867#3 915811867#2"/>
    </person>
    <person id="ped15" type="ped_pedestrian" depart="9.02">
        <walk edges="-924756877#0 205860531 608948246 205860624#2 205860624#3 609586986 544381453#4 612403312#0 612403312#1 612403313 206785742 206785712 206785710 205860520 205860605 -206785716 924741136#1 154913985 206789206 747896162 -154913984 206785705#4 206785705#3 206785705#2 154157951 -154157925#1 154913992"/>
    </person>
    <person id="ped16" type="ped_pedestrian" depart="9.62">
        <walk edges="205860574#3 205860664#3 205860664#2 205860664#1 205860567 -205860599 527267080 205860534#2 815117305#2 815117305#1 815117305#0 815117304 154356894#1 154356894#0 205860273#3 205860273#2 205860273#1 380698888#1 380698888#0 152850233#15 152850233#14 -152907240"/>
    </person>
    <person id="ped17" type="ped_pedestrian" depart="10.22">
        <walk edges="-205860592 -130921075#2 544381459#1 206785718#1 206785767#4 206785767#5 338713174 338713175 815117303 815116747 154979278#4 -154979278#3 -154979278#2 -154979278#1 154979246#1 205860439#5 205860437 130888854 225052913#0 225052913#1 380091877#0 380091877#1 380091877#2 -380698881#5"/>
    </person>
    <person id="ped18" type="ped_pedestrian" depart="10.82">
        <walk edges="-153481117#2 -206785672#2 206789198#4 206789198#3 206789198#2 -206789198#1 -153474808#7 -153481113#0 -206785643#1 -206785643#0"/>
    </person>
    <person id="ped19" type="ped_pedestrian" depart="11.42">
        <walk edges="205860272#4 130886846#0 527267087#0 527267087#1 527267087#2 205860311#19 205860311#18 205860311#17 205860311#16 205860311#15 205860311#14 205860311#13 205860311#12 205860311#11 205860311#10 -570276157#0 915429560#1 915429560#0 205860311#7 915731298 -915429558#0 -915429557#0 -915429557#1 -915429557#2 -915429556#0"/>
    </person>
    <person id="ped20" type="ped_pedestrian" depart="12.02">
        <walk edges="-915689632 570276150#3 -570276157#1 915429560#1 915429560#0 205860311#7 205860311#6 205860311#5 -443083020#0 -443083020#1 419930291#0 130920000#6 205860359#1 -130919995#0 -130919995#1 -130919995#2 130919997 205860399#1 -205860399#2"/>
    </person>
    <person id="ped21" type="ped_pedestrian" depart="12.62">
        <walk edges="-206789202#6 -924667126#0 -206789218#0 -206789214 154305445#1 154305445#0 206785706#4 154913998#3 154913998#2 154913998#1 154913998#0 206785705#5 -154913984 747896162 206789206 154913985 924741136#1 -206785716 205860605 205860520 206785710 206785712 206785742 612403313 612403312#1 206785776#9 206785776#8 206785776#7 853028547#1"/>
    </person>
    <person id="ped22" type="ped_pedestrian" depart="13.23">
        <walk edges="205860317#4 205860317#5 205860624#0 205860624#1 205860624#2 205860624#3 609586986 544381453#4 612403312#0 612403312#1 612403313 206785742 206785712 206785710 205860520 205860605 -206785716 924741136#1 154913985 206789206 747896162 -154913984 206785705#4 154377486 154154165#3 154154165#2 154155834#0 154155834#1 154154167#5 171309448#0 171309448#1 171309448#2 171309448#3"/>
    </person>
    <person id="ped23" type="ped_pedestrian" depart="13.83">
        <walk edges="-171309448#5 -171309448#4 -171309448#3 -171309448#2 -171309448#1 -171309448#0 154154167#5 154155834#1 154155834#0 154154165#1 154154165#0 154154165#5 154154169 206785705#2 206785705#1 154154170#2 154154170#1 612408548#1 154913998#3 206785706#4 154305445#0 154305445#1 206785643#0 206785643#1 206785643#2 206785643#3 206785643#5"/>
    </person>
    <person id="ped24" type="ped_pedestrian" depart="14.43">
        <walk edges="-169923332#1 380698883#3 -169923328#2 169923246#3 169923247#0 169923247#1 169923247#2 152907148 205860273#0 205860273#1 130921074#0 130921074#1 130921074#2 130921073#3 130920949#0 130920949#1 130920949#2 130920949#3 130920949#4 130920949#5 -924771937"/>
    </person>
    <person id="ped25" type="ped_pedestrian" depart="15.03">
        <walk edges="926212705#0 206789217#1 206789216#1 206785643#3 206785643#2 206785643#1 206785643#0 154305445#1 154305445#0 206785706#4 154913998#3 154913998#2 154913998#1 154913998#0 206785705#5 206785705#4 154377486 154154165#3 91885090 154154167#3 527267087#13 527267087#12 527267087#11 527267087#10 419930293#1 205860311#4 205860311#5 205860311#6 205860311#7 915429560#0 915429560#1 -570276157#0 205860311#10 205860311#11"/>
    </person>
    <person id="ped26" type="ped_pedestrian" depart="15.63">
        <walk edges="154979235#1 154979241#1 154979241#3 154979241#4 -154166072#1 205860461#1"/>
    </person>
    <person id="ped27" type="ped_pedestrian" depart="16.23">
        <walk edges="385256881#2 -385256881#1 -385256881#0 385256878 129213020#0 205860654#6 205860654#7 460222372 915811867#5 915811867#6 915811867#7 915811867#8 888777000#0 888777000#1 888777000#2 888777000#3 205860272#4 205860272#3 205860272#2 205860272#1 130920938 205860534#7 205860534#6 205860534#5 205860446#0 205860446#1 205860446#2 205860446#5 130920950#2 206785776#0 206785776#1 206785747 853028549 206785754 206785764#0"/>
    </person>
    <person id="ped28" type="ped_pedestrian" depart="16.83">
        <walk edges="-205860626 155446867 130920000#6 130920000#5 205860357#1 -130920004#4 -130920004#3 -130920004#2 -130920004#1 -130920004#0"/>
    </person>
    <person id="ped29" type="ped_pedestrian" depart="17.43">
        <walk edges="-476708485#1 -476708485#0 -476708484#0 -476998468#0 -925006919 476708483 205860311#18 205860311#19 527267087#2 -205860456#0 -205860456#1 -205860456#2 -205860456#3 205860534#6 205860534#5 205860534#4 205860534#3 205860534#2 815117305#2 815117305#1 815117305#0 815117304 154356894#1 154356894#0 205860273#3 205860273#2 205860273#1 380698888#1 154295979 154295978#5 191519118 206785643#7 206785643#6 -206789204"/>
    </person>
    <person id="ped30" type="ped_pedestrian" depart="18.03">
        <walk edges="-205860401#0 154979269#2 154979269#1 154979269#0 154979260#2 154979260#1 29011863#1 29011863#0 888777000#3 130886846#0 130886846#1 130886846#2 888777002#0 141650123#0 141650123#1 141650123#2 205860673#1 205860673#2 205860673#3 205860673#4 205860673#5 205860673#6 888777002#5 888777002#6"/>
    </person>
    <person id="ped31" type="ped_pedestrian" depart="18.64">
        <walk edges="476998473#0 -476998477 -476708485#0 -476708484#0"/>
    </person>
    <person id="ped32" type="ped_pedestrian" depart="19.24">
        <walk edges="205860371#1 -205860371#2 -205860675#1 -205860675#2 -205860675#3 -205860675#4 -205860675#5 205860643 -62277607#1 205860637 205860535#6 205860535#5 205860459 -205860460#0 -205860460#1 -205860460#2 245665882#2 -154979241#4 205860278 888777000#0 888777001 130886846#2 205860311#23 205860311#22 205860311#21 205860311#20 -130882583#5 -130883284#1 -130883284#0 -130883283#4 -130883283#3 -130883283#2 130883281#4 205860373#1 205860373#2 130877765#1"/>
    </person>
    <person id="ped33" type="ped_pedestrian" depart="19.84">
        <walk edges="608946462#1 608946461#0 206785718#0 206785718#1 206785767#3 206785767#2 206785767#1 612408550#1 130921076#3 130921073#1 130921071#0 612408549#1 130921074#1 130921074#0 205860273#1 380698888#1 380698888#0 152850233#15 152850233#14 191519142#0 165885111 -152907362#1 -356685802#3 -206785659#2 -206785659#1 -206785659#0 -191519140#1 152907255#7 152907255#6 152907255#5 152907255#4 152907255#3 152907255#2"/>
    </person>
    <person id="ped34" type="ped_pedestrian" depart="20.44">
        <walk edges="-206789198#4 -153481090#0 -206785682 -206785675#1 -206785675#2"/>
    </person>
    <person id="ped35" type="ped_pedestrian" depart="21.04">
        <walk edges="154979253#1 -154979253#2 -206789213 154913993#1 154913994 206789206 154913985 924741136#1 -206785716 205860605 -924741138#0 -924771937 130920949#5 371834354 206785744#2 206785744#3 206785744#4 206785744#5 206785744#6 130921073#5 130921073#6 130921073#1 130921071#0 130921071#1 206785771 -206785771"/>
    </person>
    <person id="ped36" type="ped_pedestrian" depart="21.64">
        <walk edges="162945054#0 205860375 205860311#5 205860311#6 205860311#7 915429560#0 915429560#1 570276157#1 -570276150#3 570276150#2 570276148#0"/>
    </person>
    <person id="ped37" type="ped_pedestrian" depart="22.24">
        <walk edges="130882582#2 130882582#3 130882582#4 205860311#22 205860311#23 130886846#2 888777001 888777000#0 205860278 -154979241#4 245665882#2 -205860460#2 -205860460#1 -205860460#0"/>
    </person>
    <person id="ped38" type="ped_pedestrian" depart="22.84">
        <walk edges="926644051#1 926644051#0 -925008260 925008264 373344070#4 141650095#0 141650095#1 380698878 380698877#1 153474816 380698889#0 380698889#1 154295978#1 154295978#2 154295978#3 368162348 206785643#7 206785643#6 206785643#5 206785643#3 206785643#2 206785643#1 206785643#0 154305445#1 154305445#0 206785706#4 154913998#3 612408548#1 154154170#1 154154170#2 206785705#1 154157951 -154157925#1 -154157925#2 154157925#3"/>
    </person>
    <person id="ped39" type="ped_pedestrian" depart="23.45">
        <walk edges="-154157939#2 911191085 171309448#4 171309448#3 171309448#2 171309448#1 171309448#0 154154167#5 154155834#1 154155834#0 154154165#1 154154165#0 154154165#5 154154169 206785705#2 206785705#1 154154170#2 154154170#1 612408548#1 154913998#3 206785706#4 154305445#0 154305445#1 206785643#0 206785643#1 206785643#2 206785643#3 -152907262#4 -152907262#3 -152907262#1"/>
    </person>
    <person id="ped40" type="ped_pedestrian" depart="24.05">
        <walk edges="206789209 -206789202#6 -924667126#0 -206789218#0 -206789214 154305445#1 154305445#0 206785706#4 154913998#3 154913998#2 154913998#1 154913998#0 206785705#5 206785705#4 154377486 154154165#3 91885090 154154167#3 527267087#13 527267087#12 527267087#11 527267087#10 419930293#1 205860311#4 205860375 -443083020#1 419930291#0 -130920000#6 205860359#2 -205860359#3 130920001#5"/>
    </person>
    <person id="ped41" type="ped_pedestrian" depart="24.65">
        <walk edges="-153474808#5 -153481111#4 206789216#1 206789217#1 -926212705#0 -926212702"/>
    </person>
    <person id="ped42" type="ped_pedestrian" depart="25.25">
        <walk edges="915689633#3 -570276152#1 -570276152#2 -570276152#3 570276154#2 570276154#1 570276157#1 915429560#1 915429560#0 205860311#7 205860311#6 205860311#5 -443083020#0 -443083020#1 419930291#0 -130920000#6 -130920000#5 205860357#1 -130920004#4 -130920004#3 205860427#2 205860427#3 -205860428#0 -205860428#1 -205860428#2 -154166057#1 -154166057#0 205860524#0 205860642#3 205860642#2 205860642#1 444491948#2 444491948#1 444491948#0 205860677 205860368#1 -917327303#0 917327303#1 -444492539 444492533#2"/>
    </person>
    <person id="ped43" type="ped_pedestrian" depart="25.85">
        <walk edges="-130883281#2 130883282#2 130882581#2 130882581#1 -130882583#3 -130882583#4 -130882583#5 527267087#2 -205860456#0 -205860456#1 -205860456#2 -205860456#3 205860534#6 205860534#5 205860534#4 527267081#1 527267081#0 -205860599 205860567 205860664#1 205860664#2"/>
    </person>
    <person id="ped44" type="ped_pedestrian" depart="26.45">
        <walk edges="-206789202#5 -206789202#6 -924667126#0 -206789218#0 -206789214 154305445#1 154305445#0 206785706#4 154913998#3 154913998#2 154913998#1 154913998#0 206785705#5 206785705#4 154377486 154154165#3 91885090 154154167#3 527267087#13 527267087#12 527267087#11 527267087#10 527267087#9 527267087#8 527267087#7 612403309#1 205860311#14"/>
    </person>
    <person id="ped45" type="ped_pedestrian" depart="27.05">
        <walk edges="-154166080#1 -154166105#5 154166105#4 154166105#3 154166105#2 154166105#1 154979241#4 154979241#3 154979241#1 154979235#1 -154979235#0 29011863#2 29011863#3 29011863#4 29011863#5 338713175 338713174 206785767#5 206785767#4 206785767#3 206785767#2 206785767#1 130921077 130921073#5"/>
    </person>
    <person id="ped46" type="ped_pedestrian" depart="27.65">
        <walk edges="476998472#1 -476998469#2 -476708478#1 -476708478#2 476708479 -476998468#0 -925006919 476708483 205860311#18 205860311#19 527267087#2 -205860456#0 -205860456#1 -205860456#2 -205860456#3 205860534#6 205860534#5 205860534#4 205860534#3 205860534#2 815117305#2 815117305#1 815117305#0 815117304 154356894#1 154356894#0 205860273#3 205860273#2 205860273#1 380698888#1 154295979 154295978#5 191519118 206785643#7 206785643#6 206785643#5 206785643#3 -206789198#0"/>
    </person>
    <person id="ped47" type="ped_pedestrian" depart="28.25">
        <walk edges="154154167#2 154154167#1 -171309448#0 -171309448#1 -171309448#2 -171309448#3 -171309448#4 -171309448#5 -171309448#6 -171309448#7 171309450#1 -171309455#0"/>
    </person>
    <person id="ped48" type="ped_pedestrian" depart="28.86">
        <walk edges="608935868 -206785761#3 -206785761#2 -206785732#1 -206785732#0 -206785745#1 -206785765#4 130921074#1 612408549#1 130921071#0 130921073#1 130921076#3 612408550#1 206785767#1 206785767#2 206785767#3 206785767#4 206785767#5 815117306 815117305#0 815117305#1 815117305#2 205860534#2 205860534#3 205860534#4 205860534#5 205860534#6 -205860456#3 -205860456#2 -205860456#1 -205860456#0 527267087#2 205860311#19 205860311#18 476708483 -925006919 -476998468#0 476708479"/>
    </person>
    <person id="ped49" type="ped_pedestrian" depart="29.46">
        <walk edges="-439478173#1 -439478173#2 154166025#4 154166025#3 154166025#2 154166025#1 154166025#0 205860311#1 205860311#0"/>
    </person>
    <person id="ped50" type="ped_pedestrian" depart="30.06">
        <walk edges="171309448#3 171309448#2 171309448#1 171309448#0 154154167#5 154155834#1 154155834#0 154154165#1 154154165#0 154154165#5 154154169 206785705#2 206785705#1 154154170#2 154154170#1 612408548#1 154913998#3 206785706#4 154305445#0 154305445#1 206785643#0 206785643#1 206785643#2 206785643#3 206785643#5 206785643#6 206785643#7 368162348 154295978#3 154295978#2 154295978#1 380698889#1 380698889#0 153474816 380698877#1 380698877#0 169923247#2 169923247#1 169923247#0 -169923246#3 -169923246#2"/>
    </person>
    <person id="ped51" type="ped_pedestrian" depart="30.66">
        <walk edges="206785741 608948248 205860317#5 205860624#0 205860624#1 608948246 205860531 -924756877#0 -205860599 527267081#0 527267081#1 205860534#4 205860534#5 205860534#6 205860534#7 130920938 205860272#1 205860272#2 205860272#3 205860272#4 888777000#3 888777000#2 130887570#1 130887570#0 154979241#4 154166105#1 154166105#2"/>
    </person>
    <person id="ped52" type="ped_pedestrian" depart="31.26">
        <walk edges="206785767#1 206785767#2 206785767#3 206785767#4 206785767#5 338713174 338713175 29011863#5 29011863#4 29011863#3 29011863#2 -154979235#0 154979235#1 154979241#1 154979241#3 154979241#4 154166105#1 154166105#2 154166105#3 154166060#0"/>
    </person>
    <person id="ped53" type="ped_pedestrian" depart="31.86">
        <walk edges="-129213020#1 -129213020#2 154166105#7 154166105#6 154166105#5 154166105#4 154166105#3 154166105#2 154166105#1 154979241#4 154979241#3 154979241#1 154979241#0 154979258#2 -154979267#0 -154979231 155035531 205860388#0 -512705361"/>
    </person>
    <person id="ped54" type="ped_pedestrian" depart="32.46">
        <walk edges="476998475#3 -476708485#1 -476708485#0 -476708484#0 -476998468#0 -925006919 476708483 205860311#18 205860311#19 527267087#2 -205860456#0 -205860456#1 -205860456#2 -205860456#3 205860534#6 205860534#5 205860534#4 205860534#3 205860534#2 815117305#2 815117305#1 815117305#0 815117304 154356894#1 154356894#0 205860273#3 205860273#2 205860273#1 205860273#0 152907148 380698884#4 380698884#3 380698882"/>
    </person>
    <person id="ped56" type="ped_pedestrian" depart="33.67">
        <walk edges="-154157920#1 154157920#0 206785672#5 206785672#4 206785672#2 206785672#1 206785672#0 153481094#1 153481094#0 153474797#6 153474821#4"/>
    </person>
    <person id="ped57" type="ped_pedestrian" depart="34.27">
        <walk edges="-153474821#1 -191519125#4 -191519125#5 -191519125#6 -191519125#7 -191519126#0 152907299#0 -356685802#0 -356685802#1 -356685802#2 -356685802#3 -152907362#1 165885111 191519142#0 152850233#14 152850233#15 380698888#0 380698888#1 205860273#1 130921074#0 130921074#1 612408549#1 130921071#0 130921073#1 130921076#3 612408550#1 612408550#2 544381456#1 544381456#2 544381459#0 -130921075#2 -130921075#3 -130921075#4 205860521 -152586885#2 690499497 205860624#1 205860624#2 205860624#3 609586986 544381453#5 544381453#6 853028547#1 206785735"/>
    </person>
    <person id="ped58" type="ped_pedestrian" depart="34.87">
        <walk edges="206785747 206785776#1 206785776#0 130920950#2 205860446#5 205860446#2 205860446#1 205860446#0 205860534#5 205860534#6 205860534#7 205860534#8 130888848 154342286 154342285#1 155445052#1 434309157 -205860425#5 -154979260#2 -154979258#0"/>
    </person>
    <person id="ped59" type="ped_pedestrian" depart="35.47">
        <walk edges="153474797#3 -153474814#4 154880303#4"/>
    </person>
    <person id="ped60" type="ped_pedestrian" depart="36.07">
        <walk edges="-206789202#0 -924667126#0 -206789218#0 -206789214 206785643#0 206785643#1 206785643#2 206785643#3 206785643#5 206785643#6 206785643#7 191519118 154295978#5 154295979 380698888#1 205860273#1 205860273#2 205860273#3 154356894#0 154356894#1 815117304 815117305#0 815117305#1 815117305#2 205860534#2 205860534#3 205860534#4 205860534#5 205860534#6 -205860456#3 -205860456#2 -205860456#1 -205860456#0 527267087#2 205860311#19 205860311#18 476708483 -925006919 -476998468#0 -476708484#0 -476708485#0 -476708485#1 476708485#3"/>
    </person>
    <person id="ped61" type="ped_pedestrian" depart="36.67">
        <walk edges="-205860388#0 -155035531 154979231 154979267#0 154979267#1 154979267#2 154979267#3 154979274#0 29011863#0 888777000#2 888777000#1 888777000#0 915811867#8 915811867#7 915811867#6 915811867#5 460222372 205860654#7 205860654#6 205860654#5 205860654#4 205860654#3 205860654#2 205860654#1 205860654#0 444491948#5 444491948#4 444491948#3 444491948#2 444491948#1 444491948#0 205860677 205860368#1 -917327303#0 917327303#1 -444492539"/>
    </person>
    <person id="ped62" type="ped_pedestrian" depart="37.27">
        <walk edges="926532046 -205860388#3 -205860388#2 -205860388#0 -155035531 154979231 154979267#0 154979267#1 154979267#2 154979267#3 154979274#0 29011863#0 888777000#3 130886846#0 130886846#1 130886846#2 888777002#0 141650123#0 141650123#1 141650123#2 -130919995#5 -130919995#4 -130919995#3 -130919995#2 -130919995#1 -130919995#0 205860359#1"/>
    </person>
    <person id="ped63" type="ped_pedestrian" depart="37.87">
        <walk edges="130921076#1 -130921075#0 206785767#2 206785767#1 130921077 130921073#5 206785744#6 206785744#5 206785744#4 206785744#3 206785744#2 371834354 130920949#5 -924771937 -924741138#0 205860605 -206785716 924741136#1 154913985 206789206 747896162 154157950"/>
    </person>
    <person id="ped64" type="ped_pedestrian" depart="38.47">
        <walk edges="-154913992 154913992 -154157925#1 154157951 206785705#2 206785705#3 154377486 154154165#3 91885090 154154167#3 527267087#13 527267087#12 527267087#11 527267087#10 419930293#1 205860311#4 205860375 -443083020#1 419930291#0 -130920000#6 -130920000#5 205860357#1 -130920004#4 -130920004#3 205860427#2 205860427#3 -205860428#0 -205860428#1 154166040#1 -205860475#1"/>
    </person>
    <person id="ped65" type="ped_pedestrian" depart="39.08">
        <walk edges="-570276162#2 570276161 -570276163#0 -570276155 473405409#1 205860311#13 205860311#14 205860311#15 205860311#16 205860311#17 205860311#18 205860311#19 527267087#2 527267087#1 527267087#0 130886846#0 888777000#3 29011863#0 29011863#1 154979260#1 154979260#2 154979269#0 154979269#1 154979269#2 154979269#3 -169923334#4 -225052924 -169359373#1 169359373#0"/>
    </person>
    <person id="ped66" type="ped_pedestrian" depart="39.68">
        <walk edges="-205860669#0 205860564 -205860389#5 -205860389#4 -205860389#3 -205860389#2 -205860389#1 205860391 245665881#1 -205860460#3"/>
    </person>
    <person id="ped67" type="ped_pedestrian" depart="40.28">
        <walk edges="-153481090#2 153481090#1 153481090#0 206785672#2 153481117#2 153481117#1 153481117#0 206785662#0 153481095 62279855#3 -153474811#4 -153474811#3 -153474811#2 -153474811#1 191519133#7"/>
    </person>
    <person id="ped68" type="ped_pedestrian" depart="40.88">
        <walk edges="-205860626 -155446867 419930291#0 -443083020#1 -443083020#0 205860311#5 205860311#6 205860311#7 915429560#0 915429560#1 570276157#1 570276154#1 570276154#2 -570276152#3 -915689634#0 570276153#3"/>
    </person>
    <person id="ped69" type="ped_pedestrian" depart="41.48">
        <walk edges="-206785663#2 -206785663#3 -206785664#1 206785669#5 -368167200#0 947581040 206785706#2 154154170#0 154154170#1 154154170#2 206785705#1 206785705#2 206785705#3 154377486 154154165#3 91885090 154154167#3 527267087#13 527267087#12 205860571 205860311#1 154166025#0 162945054#1 162945054#2 -205860400#0 205860400#0"/>
    </person>
    <person id="ped70" type="ped_pedestrian" depart="42.08">
        <walk edges="-205860427#1 130920004#2 130920004#1 130920002#2 130920002#1 130919995#5 141650123#2 141650123#1 141650123#0 888777002#0 130886846#2 130886846#1 130886846#0 888777000#3 29011863#0 154979274#0 -154979267#3 -154979267#2"/>
    </person>
    <person id="ped71" type="ped_pedestrian" depart="42.68">
        <walk edges="853028546#1 853028546#2 544381453#5 609586986 205860624#3 205860624#2 205860624#1 690499497 -152586885#2 205860521 -206785730 608946461#1 608946461#0 206785718#0 206785718#1 206785767#4 206785767#5 338713174 338713175 815117303 815116747 154979278#4 154979278#3 154979278#2 154979278#1 154979278#0"/>
    </person>
    <person id="ped72" type="ped_pedestrian" depart="43.28">
        <walk edges="-154166025#1 419930291#1 419930291#0 130920000#6 205860359#1 -130919995#0 -130919995#1 130919998#0 205860398#1 -130877767#1 -130877767#0 130883281#4 -130883283#2 -130883283#3 -130883283#4 -130883284#0 -130883284#1 -130882583#5 527267087#2 -205860456#0 -205860456#1 -205860456#2 -205860456#3 205860534#6 205860443#3 205860443#0 130920950#1"/>
    </person>
    <person id="ped73" type="ped_pedestrian" depart="43.88">
        <walk edges="206785643#5 206785643#6 206785643#7 191519118 154295978#5 154295979 380698888#1 205860273#1 205860273#2 205860273#3 154356894#0 154356894#1 815117304 815117305#0 815117305#1 815117305#2 205860534#2 205860534#3 205860534#4 205860534#5 205860534#6 -205860456#3 -205860456#2 -205860456#1 -205860456#0 527267087#2 -130882583#5 -130882583#4 -130882583#3 -130882583#2 -130882583#1 -130882583#0 130920003#0 130919995#3 -205860427#0 205860427#1"/>
    </person>
    <person id="ped74" type="ped_pedestrian" depart="44.49">
        <walk edges="924756877#1 205860531 608948246 205860624#2 205860624#3 609586986 544381453#4 612403312#0 612403312#1 612403313 206785742 206785712 206785710 205860520 205860605 -206785716 924741136#1 154913985 206789206 747896162 -154913984 206785705#4 154377486 154154165#3 154154165#2 154155834#0 154155834#1 154154167#5 -171309448#0 -171309448#1 -171309448#2 -171309448#3 -171309448#4 -171309448#5 -171309448#6 -171309448#7 -171309448#8 -171309448#9 -171309448#11 -171309448#12 154166097#0 -154166097#1 -154166097#2 -154166097#3 -154166026#2 -154166026#1"/>
    </person>
    <person id="ped75" type="ped_pedestrian" depart="45.09">
        <walk edges="130883281#0 130882583#2 130882583#3 130882583#4 -130882583#5 205860311#19 205860311#18 205860311#17 205860311#16 205860311#15 205860311#14 205860311#13 473405409#1 -570276155 -570276163#0 -570276163#1 -570276163#2"/>
    </person>
    <person id="ped76" type="ped_pedestrian" depart="45.69">
        <walk edges="-206785681#5 -206785681#6 -206785681#7 923743991 206785706#5 206785706#4 154913998#3 612408548#2"/>
    </person>
    <person id="ped77" type="ped_pedestrian" depart="46.29">