<?xml version="1.0" encoding="UTF-8"?>

<!-- generated on 2021-06-20 15:40:38 by Eclipse SUMO duarouter Version 1.9.2
<configuration xmlns:xsi="http://www.w3.org/2001/XMLSchema-instance" xsi:noNamespaceSchemaLocation="http://sumo.dlr.de/xsd/duarouterConfiguration.xsd">

    <input>
        <net-file value="/home/diego/PycharmProjects/hadoop-simulation-urban-modbility/2021-06-20-15-40-03/osm.net.xml"/>
        <route-files value="/home/diego/PycharmProjects/hadoop-simulation-urban-modbility/2021-06-20-15-40-03/osm.bus.trips.xml"/>
    </input>

    <output>
        <output-file value="/home/diego/PycharmProjects/hadoop-simulation-urban-modbility/2021-06-20-15-40-03/osm.bus.trips.xml.tmp"/>
        <write-trips value="true"/>
    </output>

    <time>
        <begin value="0"/>
        <end value="600"/>
    </time>

    <report>
        <no-warnings value="true"/>
        <ignore-errors value="true"/>
        <no-step-log value="true"/>
    </report>

</configuration>
-->

<routes xmlns:xsi="http://www.w3.org/2001/XMLSchema-instance" xsi:noNamespaceSchemaLocation="http://sumo.dlr.de/xsd/routes_file.xsd">
    <vType id="bus_bus" vClass="bus"/>
    <trip id="bus0" type="bus_bus" depart="0.00" departLane="best" from="154979278#2" to="-130920003#0"/>
    <trip id="bus1" type="bus_bus" depart="1.17" departLane="best" from="-205860374#1" to="-170773053#3"/>
    <trip id="bus2" type="bus_bus" depart="2.35" departLane="best" from="205860272#0" to="169923270#1"/>
    <trip id="bus3" type="bus_bus" depart="3.52" departLane="best" from="259262949#0" to="-154157943"/>
    <trip id="bus4" type="bus_bus" depart="4.70" departLane="best" from="-915447945#0" to="-141650107#2"/>
    <trip id="bus5" type="bus_bus" depart="5.87" departLane="best" from="-169923334#1" to="153474818#2"/>
    <trip id="bus6" type="bus_bus" depart="7.05" departLane="best" from="-130920004#2" to="-169923277#3"/>
    <trip id="bus7" type="bus_bus" depart="8.22" departLane="best" departSpeed="max" from="155445053#0" to="154166074#1"/>
    <trip id="bus8" type="bus_bus" depart="9.40" departLane="best" from="-170773053#5" to="154797715#2"/>
    <trip id="bus9" type="bus_bus" depart="10.57" departLane="best" departSpeed="max" from="205860491" to="-130882582#3"/>
    <trip id="bus10" type="bus_bus" depart="11.74" departLane="best" from="205860476#3" to="171309448#1"/>
    <trip id="bus11" type="bus_bus" depart="12.92" departLane="best" from="-206785672#2" to="-154797835#0"/>
    <trip id="bus12" type="bus_bus" depart="14.09" departLane="best" departSpeed="max" from="570276149#0" to="-206785677#2"/>
    <trip id="bus13" type="bus_bus" depart="15.27" departLane="best" departSpeed="max" from="-154166076#1" to="-154166029"/>
    <trip id="bus14" type="bus_bus" depart="16.44" departLane="best" from="206785669#3" to="154797779#1"/>
    <trip id="bus15" type="bus_bus" depart="17.62" departLane="best" from="205860476#9" to="191519126#1"/>
    <trip id="bus16" type="bus_bus" depart="18.79" departLane="best" departSpeed="max" from="154157939#0" to="570276163#2"/>
    <trip id="bus17" type="bus_bus" depart="19.97" departLane="best" from="-380698881#3" to="154166101#8"/>
    <trip id="bus18" type="bus_bus" depart="21.14" departLane="best" departSpeed="max" from="205860668#0" to="154797855"/>
    <trip id="bus19" type="bus_bus" depart="22.31" departLane="best" from="225052903#5" to="154300832#2"/>
    <trip id="bus20" type="bus_bus" depart="23.49" departLane="best" from="171309461#0" to="-152907345#2"/>
    <trip id="bus21" type="bus_bus" depart="24.66" departLane="best" from="-171309451#9" to="-205860401#1"/>
    <trip id="bus22" type="bus_bus" depart="25.84" departLane="best" from="-154166025#0" to="-171309452"/>
    <trip id="bus23" type="bus_bus" depart="27.01" departLane="best" from="-154166106#2" to="-205860386#0"/>
    <trip id="bus24" type="bus_bus" depart="28.19" departLane="best" from="154979267#3" to="-361645994#0"/>
    <trip id="bus25" type="bus_bus" depart="29.36" departLane="best" from="-259262958#2" to="-169923317#1"/>
    <trip id="bus26" type="bus_bus" depart="30.54" departLane="best" departSpeed="max" from="-205860365#11" to="441225646#1"/>
    <trip id="bus27" type="bus_bus" depart="31.71" departLane="best" departSpeed="max" from="155221632#0" to="154797805#1"/>
    <trip id="bus28" type="bus_bus" depart="32.88" departLane="best" from="-154979233#0" to="191519125#6"/>
    <trip id="bus29" type="bus_bus" depart="34.06" departLane="best" departSpeed="max" from="-154797882#4" to="-441354964#1"/>
    <trip id="bus30" type="bus_bus" depart="35.23" departLane="best" from="915429559#1" to="154979248"/>
    <trip id="bus31" type="bus_bus" depart="36.41" departLane="best" from="154166075#0" to="169923282#7"/>
    <trip id="bus32" type="bus_bus" depart="37.58" departLane="best" from="206785663#1" to="205860387#1"/>
    <trip id="bus33" type="bus_bus" depart="38.76" departLane="best" from="-171309454#2" to="-141650113#0"/>
    <trip id="bus34" type="bus_bus" depart="39.93" departLane="best" from="-205860475#3" to="-205860365#5"/>
    <trip id="bus35" type="bus_bus" depart="41.11" departLane="best" departSpeed="max" from="-169923312" to="444306144#0"/>
    <trip id="bus36" type="bus_bus" depart="42.28" departLane="best" from="225052928#1" to="-205860612#0"/>
    <trip id="bus37" type="bus_bus" depart="43.45" departLane="best" from="165885103#0" to="-512705363"/>
    <trip id="bus38" type="bus_bus" depart="44.63" departLane="best" from="380698881#5" to="130920001#5"/>
    <trip id="bus39" type="bus_bus" depart="45.80" departLane="best" departSpeed="max" from="-205860361#7" to="-191519125#0"/>
    <trip id="bus40" type="bus_bus" depart="46.98" departLane="best" from="154166105#1" to="-205860359#0"/>
    <trip id="bus41" type="bus_bus" depart="48.15" departLane="best" departSpeed="max" from="154797671#0" to="235423817#1"/>
    <trip id="bus42" type="bus_bus" depart="49.33" departLane="best" from="-512706850#1" to="-169923332#0"/>
    <trip id="bus43" type="bus_bus" depart="50.50" departLane="best" from="923237983" to="153481091"/>
    <trip id="bus44" type="bus_bus" depart="51.68" departLane="best" departSpeed="max" from="-154166074#1" to="-152907362#3"/>
    <trip id="bus45" type="bus_bus" depart="52.85" departLane="best" from="-154168227#2" to="154797901#1"/>
    <trip id="bus46" type="bus_bus" depart="54.02" departLane="best" from="205860454#3" to="-665479101"/>
    <trip id="bus47" type="bus_bus" depart="55.20" departLane="best" from="-153481100#0" to="-441354965#1"/>
    <trip id="bus48" type="bus_bus" depart="56.37" departLane="best" from="917362968" to="154157946#1"/>
    <trip id="bus49" type="bus_bus" depart="57.55" departLane="best" from="570276163#1" to="206785674#0"/>
    <trip id="bus50" type="bus_bus" depart="58.72" departLane="best" from="-130883283#0" to="173550588#5"/>
    <trip id="bus51" type="bus_bus" depart="59.90" departLane="best" from="169923322#1" to="154166035#4"/>
    <trip id="bus52" type="bus_bus" depart="61.07" departLane="best" departSpeed="max" from="-205860365#11" to="154979260#1"/>
    <trip id="bus53" type="bus_bus" depart="62.25" departLane="best" departSpeed="max" from="-154168232#1" to="129213020#5"/>
    <trip id="bus54" type="bus_bus" depart="63.42" departLane="best" from="130920001#6" to="472174220#1"/>
    <trip id="bus55" type="bus_bus" depart="64.59" departLane="best" departSpeed="max" from="225052928#0" to="-205860359#0"/>
    <trip id="bus56" type="bus_bus" depart="65.77" departLane="best" from="153474800#0" to="-155035452"/>
    <trip id="bus57" type="bus_bus" depart="66.94" departLane="best" from="380698878" to="206785706#4"/>
    <trip id="bus58" type="bus_bus" depart="68.12" departLane="best" from="-205860418#2" to="154979241#4"/>
    <trip id="bus59" type="bus_bus" depart="69.29" departLane="best" from="205860372#1" to="154166040#4"/>
    <trip id="bus60" type="bus_bus" depart="70.47" departLane="best" from="205860400#2" to="154157949#3"/>
    <trip id="bus61" type="bus_bus" depart="71.64" departLane="best" from="-129213020#2" to="-205860675#1"/>
    <trip id="bus62" type="bus_bus" depart="72.82" departLane="best" from="-130920000#1" to="380698886"/>
    <trip id="bus64" type="bus_bus" depart="75.16" departLane="best" from="-205860456#2" to="-153474811#2"/>
    <trip id="bus65" type="bus_bus" depart="76.34" departLane="best" from="225052930#4" to="446749127"/>
    <trip id="bus66" type="bus_bus" depart="77.51" departLane="best" from="-154166040#7" to="152907262#0"/>
    <trip id="bus67" type="bus_bus" depart="78.69" departLane="best" from="-153481118#2" to="205860362"/>
    <trip id="bus68" type="bus_bus" depart="79.86" departLane="best" from="205860382#0" to="-154300832#2"/>
    <trip id="bus69" type="bus_bus" depart="81.04" departLane="best" from="152850233#15" to="154166101#1"/>
    <trip id="bus70" type="bus_bus" depart="82.21" departLane="best" departSpeed="max" from="-205860362" to="206789198#2"/>
    <trip id="bus71" type="bus_bus" depart="83.39" departLane="best" from="-915689633#0" to="-169923322#2"/>
    <trip id="bus72" type="bus_bus" depart="84.56" departLane="best" from="154157945" to="191519126#1"/>
    <trip id="bus73" type="bus_bus" depart="85.73" departLane="best" from="-169923271#2" to="-205860491"/>
    <trip id="bus74" type="bus_bus" depart="86.91" departLane="best" from="915811867#6" to="155035451"/>
    <trip id="bus75" type="bus_bus" depart="88.08" departLane="best" from="130883281#1" to="153481118#2"/>
    <trip id="bus76" type="bus_bus" depart="89.26" departLane="best" departSpeed="max" from="-154300832#3" to="-171309448#1"/>
    <trip id="bus77" type="bus_bus" depart="90.43" departLane="best" from="-206785669#0" to="154797696#3"/>
    <trip id="bus78" type="bus_bus" depart="91.61" departLane="best" from="-171309463#0" to="-169923334#0"/>
    <trip id="bus79" type="bus_bus" depart="92.78" departLane="best" from="-154157918#3" to="154797913#4"/>
    <trip id="bus80" type="bus_bus" depart="93.96" departLane="best" from="-171309454#2" to="259262956#3"/>
    <trip id="bus81" type="bus_bus" depart="95.13" departLane="best" from="222976358#0" to="-153481113#2"/>
    <trip id="bus82" type="bus_bus" depart="96.30" departLane="best" from="-173550587#0" to="169359373#0"/>
    <trip id="bus83" type="bus_bus" depart="97.48" departLane="best" from="-169923318#1" to="-154797679#3"/>
    <trip id="bus84" type="bus_bus" depart="98.65" departLane="best" from="446749128#7" to="154247169#1"/>
    <trip id="bus85" type="bus_bus" depart="99.83" departLane="best" departSpeed="max" from="152850233#0" to="205860399#1"/>
    <trip id="bus86" type="bus_bus" depart="101.00" departLane="best" from="205860477" to="-157935618#3"/>
    <trip id="bus87" type="bus_bus" depart="102.18" departLane="best" from="-154166101#7" to="-915689632"/>
    <trip id="bus88" type="bus_bus" depart="103.35" departLane="best" from="-915689633#2" to="141650072#6"/>
    <trip id="bus89" type="bus_bus" depart="104.53" departLane="best" departSpeed="max" from="191519133#0" to="169923250#1"/>
    <trip id="bus90" type="bus_bus" depart="105.70" departLane="best" from="-570276151#2" to="-206785682"/>
    <trip id="bus91" type="bus_bus" depart="106.87" departLane="best" from="225052903#5" to="-191519125#6"/>
    <trip id="bus92" type="bus_bus" depart="108.05" departLane="best" from="-155445054#0" to="130883285#2"/>
    <trip id="bus94" type="bus_bus" depart="110.40" departLane="best" from="130883285#2" to="206785674#2"/>
    <trip id="bus95" type="bus_bus" depart="111.57" departLane="best" from="154166035#8" to="-153474792#1"/>
    <trip id="bus96" type="bus_bus" depart="112.75" departLane="best" from="926532046" to="205860645#1"/>
    <trip id="bus97" type="bus_bus" depart="113.92" departLane="best" departSpeed="max" from="570276162#0" to="380698883#1"/>
    <trip id="bus98" type="bus_bus" depart="115.10" departLane="best" from="206785672#1" to="-154979237#0"/>
    <trip id="bus99" type="bus_bus" depart="116.27" departLane="best" from="152907299#1" to="-169923326#1"/>
    <trip id="bus100" type="bus_bus" depart="117.44" departLane="best" from="-570276149#2" to="-153474811#4"/>
    <trip id="bus101" type="bus_bus" depart="118.62" departLane="best" from="-380698881#4" to="915429557#0"/>
    <trip id="bus102" type="bus_bus" depart="119.79" departLane="best" departSpeed="max" from="-205860362" to="205860398#2"/>
    <trip id="bus103" type="bus_bus" depart="120.97" departLane="best" from="130920002#1" to="-665479102"/>
    <trip id="bus104" type="bus_bus" depart="122.14" departLane="best" departSpeed="max" from="570276149#0" to="91885090"/>
    <trip id="bus105" type="bus_bus" depart="123.32" departLane="best" from="154166066#1" to="173550578#1"/>
    <trip id="bus106" type="bus_bus" depart="124.49" departLane="best" from="-154797835#1" to="-205860454#0"/>
    <trip id="bus107" type="bus_bus" depart="125.67" departLane="best" from="570276160" to="154305445#1"/>
    <trip id="bus108" type="bus_bus" depart="126.84" departLane="best" from="154157949#2" to="205860311#18"/>
    <trip id="bus109" type="bus_bus" depart="128.01" departLane="best" from="-153474818#1" to="154797679#3"/>
    <trip id="bus110" type="bus_bus" depart="129.19" departLane="best" from="153474811#1" to="206785643#5"/>
    <trip id="bus111" type="bus_bus" depart="130.36" departLane="best" departSpeed="max" from="-154797855" to="570276148#2"/>
    <trip id="bus112" type="bus_bus" depart="131.54" departLane="best" from="-154166025#1" to="-155221632#0"/>
    <trip id="bus113" type="bus_bus" depart="132.71" departLane="best" from="154797715#3" to="169923266#2"/>
    <trip id="bus114" type="bus_bus" depart="133.89" departLane="best" from="-173550553" to="-154247168#0"/>
    <trip id="bus115" type="bus_bus" depart="135.06" departLane="best" departSpeed="max" from="247366415#0" to="-191519125#0"/>
    <trip id="bus116" type="bus_bus" depart="136.24" departLane="best" from="154797715#1" to="154797859"/>
    <trip id="bus117" type="bus_bus" depart="137.41" departLane="best" departSpeed="max" from="-915429556#1" to="154797679#1"/>
    <trip id="bus118" type="bus_bus" depart="138.58" departLane="best" from="154154167#2" to="439478173#0"/>
    <trip id="bus119" type="bus_bus" depart="139.76" departLane="best" departSpeed="max" from="-169923277#9" to="173550556"/>
    <trip id="bus120" type="bus_bus" depart="140.93" departLane="best" from="-173550588#1" to="-512705363"/>
    <trip id="bus121" type="bus_bus" depart="142.11" departLane="best" from="169923282#1" to="-205860455#0"/>
    <trip id="bus122" type="bus_bus" depart="143.28" departLane="best" from="-205860485#0" to="205860341#0"/>
    <trip id="bus123" type="bus_bus" depart="144.46" departLane="best" from="-154157932#1" to="130920001#3"/>
    <trip id="bus124" type="bus_bus" depart="145.63" departLane="best" from="924066531" to="923237983"/>
    <trip id="bus125" type="bus_bus" depart="146.81" departLane="best" from="-154157937#1" to="-169923326#0"/>
    <trip id="bus126" type="bus_bus" depart="147.98" departLane="best" departSpeed="max" from="-205860362" to="380698889#1"/>
    <trip id="bus127" type="bus_bus" depart="149.15" departLane="best" from="235423798#1" to="225052909#5"/>
    <trip id="bus128" type="bus_bus" depart="150.33" departLane="best" from="-259262958#0" to="-154797869#0"/>
    <trip id="bus129" type="bus_bus" depart="151.50" departLane="best" from="205860672#2" to="171309451#3"/>
    <trip id="bus130" type="bus_bus" depart="152.68" departLane="best" from="154797815#1" to="915429560#0"/>
    <trip id="bus131" type="bus_bus" depart="153.85" departLane="best" from="161884210#1" to="-130882583#3"/>
    <trip id="bus132" type="bus_bus" depart="155.03" departLane="best" from="205860558" to="-205860454#6"/>
    <trip id="bus133" type="bus_bus" depart="156.20" departLane="best" departSpeed="max" from="169923256#0" to="441354964#7"/>
    <trip id="bus134" type="bus_bus" depart="157.38" departLane="best" from="-154797732#3" to="-154168218#2"/>
    <trip id="bus135" type="bus_bus" depart="158.55" departLane="best" from="-154168222#1" to="154166105#1"/>
    <trip id="bus136" type="bus_bus" depart="159.72" departLane="best" from="173550588#1" to="-169923288#1"/>
    <trip id="bus137" type="bus_bus" depart="160.90" departLane="best" from="154979262#1" to="-205860359#2"/>
    <trip id="bus138" type="bus_bus" depart="162.07" departLane="best" from="152907325#2" to="259262956#2"/>
    <trip id="bus139" type="bus_bus" depart="163.25" departLane="best" from="206785665#3" to="-154166023#1"/>
    <trip id="bus140" type="bus_bus" depart="164.42" departLane="best" from="-915689633#2" to="-205860384#1"/>
    <trip id="bus141" type="bus_bus" depart="165.60" departLane="best" from="154979272#0" to="-205860357#1"/>
    <trip id="bus142" type="bus_bus" depart="166.77" departLane="best" from="205860294#2" to="154166101#7"/>
    <trip id="bus143" type="bus_bus" depart="167.95" departLane="best" departSpeed="max" from="-926523565" to="-130883281#4"/>
    <trip id="bus144" type="bus_bus" depart="169.12" departLane="best" from="-154157946#0" to="225052920#1"/>
    <trip id="bus145" type="bus_bus" depart="170.29" departLane="best" from="368167200#4" to="154166074#1"/>
    <trip id="bus146" type="bus_bus" depart="171.47" departLane="best" from="205860672#6" to="154797662#4"/>
    <trip id="bus147" type="bus_bus" depart="172.64" departLane="best" departSpeed="max" from="-154797805#1" to="-154300832#0"/>
    <trip id="bus148" type="bus_bus" depart="173.82" departLane="best" from="205860460#2" to="206785674#0"/>
    <trip id="bus149" type="bus_bus" depart="174.99" departLane="best" from="356685802#0" to="-169923318#0"/>
    <trip id="bus151" type="bus_bus" depart="177.34" departLane="best" from="205860409#1" to="225052923#3"/>
    <trip id="bus152" type="bus_bus" depart="178.52" departLane="best" from="-570276155" to="154797861#1"/>
    <trip id="bus153" type="bus_bus" depart="179.69" departLane="best" from="-154797835#0" to="380698887#0"/>
    <trip id="bus154" type="bus_bus" depart="180.86" departLane="best" from="225052909#6" to="62279855#2"/>
    <trip id="bus155" type="bus_bus" depart="182.04" departLane="best" from="205860526#0" to="225052913#1"/>
    <trip id="bus157" type="bus_bus" depart="184.39" departLane="best" from="-206785643#2" to="380698887#4"/>
    <trip id="bus158" type="bus_bus" depart="185.56" departLane="best" from="205860474#2" to="206785675#3"/>
    <trip id="bus159" type="bus_bus" depart="186.74" departLane="best" from="205860526#0" to="-205860361#6"/>
    <trip id="bus160" type="bus_bus" depart="187.91" departLane="best" from="205860439#1" to="-154166101#1"/>
    <trip id="bus161" type="bus_bus" depart="189.09" departLane="best" from="225052925#2" to="206785669#3"/>
    <trip id="bus162" type="bus_bus" depart="190.26" departLane="best" from="-171309448#16" to="205860476#8"/>
    <trip id="bus163" type="bus_bus" depart="191.43" departLane="best" from="141650072#1" to="-205860463#0"/>
    <trip id="bus164" type="bus_bus" depart="192.61" departLane="best" from="205860459" to="-171309448#7"/>
    <trip id="bus165" type="bus_bus" depart="193.78" departLane="best" from="-130920002#0" to="-169923266#0"/>
    <trip id="bus166" type="bus_bus" depart="194.96" departLane="best" from="-205860672#2" to="206785675#3"/>
    <trip id="bus167" type="bus_bus" depart="196.13" departLane="best" from="570276154#3" to="-205860387#0"/>
    <trip id="bus168" type="bus_bus" depart="197.31" departLane="best" from="155035471" to="-512706850#0"/>
    <trip id="bus169" type="bus_bus" depart="198.48" departLane="best" from="815116747" to="154166035#1"/>
    <trip id="bus170" type="bus_bus" depart="199.66" departLane="best" from="460223841#6" to="-154168218#2"/>
    <trip id="bus171" type="bus_bus" depart="200.83" departLane="best" from="570276162#1" to="-155035451"/>
    <trip id="bus172" type="bus_bus" depart="202.00" departLane="best" departSpeed="max" from="570276152#0" to="-205860360#2"/>
    <trip id="bus174" type="bus_bus" depart="204.35" departLane="best" departSpeed="max" from="191519133#0" to="-205860566"/>
    <trip id="bus175" type="bus_bus" depart="205.53" departLane="best" from="154797776#1" to="153481100#0"/>
    <trip id="bus176" type="bus_bus" depart="206.70" departLane="best" from="-441225646#1" to="154300830#2"/>
    <trip id="bus177" type="bus_bus" depart="207.88" departLane="best" from="-205860305#5" to="173498516#3"/>
    <trip id="bus178" type="bus_bus" depart="209.05" departLane="best" from="-129213020#6" to="380698881#5"/>
    <trip id="bus179" type="bus_bus" depart="210.23" departLane="best" departSpeed="max" from="154157943" to="173550588#0"/>
    <trip id="bus180" type="bus_bus" depart="211.40" departLane="best" from="205860305#2" to="169923246#2"/>
    <trip id="bus181" type="bus_bus" depart="212.57" departLane="best" departSpeed="max" from="-225052934" to="-153481111#4"/>
    <trip id="bus182" type="bus_bus" depart="213.75" departLane="best" from="169923256#3" to="-206785664#1"/>
    <trip id="bus183" type="bus_bus" depart="214.92" departLane="best" from="-205860474#4" to="205860673#1"/>
    <trip id="bus184" type="bus_bus" depart="216.10" departLane="best" from="173550588#9" to="-205860455#0"/>
    <trip id="bus185" type="bus_bus" depart="217.27" departLane="best" from="-205860461#1" to="-570276152#0"/>
    <trip id="bus186" type="bus_bus" depart="218.45" departLane="best" from="-570276151#1" to="-205860435#0"/>
    <trip id="bus187" type="bus_bus" depart="219.62" departLane="best" from="-154797679#8" to="-62279855#1"/>
    <trip id="bus188" type="bus_bus" depart="220.80" departLane="best" from="472174220#1" to="169923270#3"/>
    <trip id="bus189" type="bus_bus" depart="221.97" departLane="best" from="368162348" to="154797830"/>
    <trip id="bus190" type="bus_bus" depart="223.14" departLane="best" departSpeed="max" from="-205860425#5" to="154166076#1"/>
    <trip id="bus191" type="bus_bus" depart="224.32" departLane="best" from="-129213020#1" to="-205860399#0"/>
    <trip id="bus192" type="bus_bus" depart="225.49" departLane="best" from="129213040#1" to="154342287"/>
    <trip id="bus193" type="bus_bus" depart="226.67" departLane="best" from="162945054#1" to="130920950#4"/>
    <trip id="bus194" type="bus_bus" depart="227.84" departLane="best" from="130883284#2" to="-169923326#1"/>
    <trip id="bus195" type="bus_bus" depart="229.02" departLane="best" departSpeed="max" from="152850233#0" to="245665886"/>
    <trip id="bus196" type="bus_bus" depart="230.19" departLane="best" from="205860460#1" to="-154979246#2"/>
    <trip id="bus197" type="bus_bus" depart="231.37" departLane="best" from="-154166040#4" to="153481113#2"/>
    <trip id="bus198" type="bus_bus" depart="232.54" departLane="best" from="154979258#1" to="-206785674#2"/>
    <trip id="bus199" type="bus_bus" depart="233.71" departLane="best" from="205860575#1" to="205860311#8"/>
    <trip id="bus200" type="bus_bus" depart="234.89" departLane="best" from="169923282#6" to="-171309448#1"/>
    <trip id="bus201" type="bus_bus" depart="236.06" departLane="best" departSpeed="max" from="-169923266#2" to="-130920002#3"/>
    <trip id="bus202" type="bus_bus" depart="237.24" departLane="best" from="-191519133#5" to="141650129#7"/>
    <trip id="bus203" type="bus_bus" depart="238.41" departLane="best" from="-62277607#0" to="154797913#2"/>
    <trip id="bus204" type="bus_bus" depart="239.59" departLane="best" departSpeed="max" from="-159803128#1" to="170773053#2"/>
    <trip id="bus205" type="bus_bus" depart="240.76" departLane="best" departSpeed="max" from="153474792#0" to="-173550588#4"/>
    <trip id="bus206" type="bus_bus" depart="241.94" departLane="best" from="166907800#0" to="-130882581#3"/>
    <trip id="bus207" type="bus_bus" depart="243.11" departLane="best" from="205860353#3" to="205860374#1"/>
    <trip id="bus208" type="bus_bus" depart="244.28" departLane="best" from="-154168218#3" to="-689528679#3"/>
    <trip id="bus209" type="bus_bus" depart="245.46" departLane="best" from="-154979262#1" to="527267087#2"/>
    <trip id="bus210" type="bus_bus" depart="246.63" departLane="best" from="153481117#1" to="-153474792#0"/>
    <trip id="bus212" type="bus_bus" depart="248.98" departLane="best" from="130920003#1" to="205860443#3"/>
    <trip id="bus213" type="bus_bus" depart="250.16" departLane="best" departSpeed="max" from="169923277#0" to="915447945#0"/>
    <trip id="bus214" type="bus_bus" depart="251.33" departLane="best" from="154797715#4" to="460222371#1"/>
    <trip id="bus215" type="bus_bus" depart="252.51" departLane="best" from="247366429#0" to="154797814#1"/>
    <trip id="bus216" type="bus_bus" depart="253.68" departLane="best" from="173550588#7" to="153474816"/>
    <trip id="bus217" type="bus_bus" depart="254.85" departLane="best" from="205860668#4" to="154166076#1"/>
    <trip id="bus218" type="bus_bus" depart="256.03" departLane="best" from="29011863#5" to="205860305#1"/>
    <trip id="bus219" type="bus_bus" depart="257.20" departLane="best" from="152850233#12" to="-205860305#5"/>
    <trip id="bus220" type="bus_bus" depart="258.38" departLane="best" from="-191519140#7" to="154979235#1"/>
    <trip id="bus221" type="bus_bus" depart="259.55" departLane="best" from="205860382#0" to="154154170#0"/>
    <trip id="bus222" type="bus_bus" depart="260.73" departLane="best" departSpeed="max" from="154979237#0" to="-205860381#0"/>
    <trip id="bus223" type="bus_bus" depart="261.90" departLane="best" from="-154166022#1" to="-205860397#0"/>
    <trip id="bus224" type="bus_bus" depart="263.08" departLane="best" from="-205860368#2" to="-205860669#0"/>
    <trip id="bus225" type="bus_bus" depart="264.25" departLane="best" departSpeed="max" from="154157948#0" to="-154797696#1"/>
    <trip id="bus226" type="bus_bus" depart="265.42" departLane="best" departSpeed="max" from="171309464#0" to="-153481090#0"/>
    <trip id="bus227" type="bus_bus" depart="266.60" departLane="best" from="-570276159#0" to="154166060#0"/>
    <trip id="bus228" type="bus_bus" depart="267.77" departLane="best" from="-665479103" to="-169923311#2"/>
    <trip id="bus229" type="bus_bus" depart="268.95" departLane="best" from="-915429557#1" to="259262956#1"/>
    <trip id="bus230" type="bus_bus" depart="270.12" departLane="best" departSpeed="max" from="154797671#0" to="169923334#1"/>
    <trip id="bus231" type="bus_bus" depart="271.30" departLane="best" from="206785706#4" to="205860367#4"/>
    <trip id="bus232" type="bus_bus" depart="272.47" departLane="best" from="-380698883#4" to="-130882582#1"/>
    <trip id="bus233" type="bus_bus" depart="273.65" departLane="best" from="-222977822#1" to="205860352"/>
    <trip id="bus234" type="bus_bus" depart="274.82" departLane="best" from="206785681#5" to="472174220#0"/>
    <trip id="bus235" type="bus_bus" depart="275.99" departLane="best" from="154166025#4" to="154797779#1"/>
    <trip id="bus236" type="bus_bus" depart="277.17" departLane="best" from="-170773053#6" to="-169923332#1"/>
    <trip id="bus237" type="bus_bus" depart="278.34" departLane="best" from="130882582#4" to="-141650072#6"/>
    <trip id="bus238" type="bus_bus" depart="279.52" departLane="best" from="-206785664#0" to="169923277#4"/>
    <trip id="bus239" type="bus_bus" depart="280.69" departLane="best" from="-570276152#1" to="-154979237#0"/>
    <trip id="bus240" type="bus_bus" depart="281.87" departLane="best" from="141650113#5" to="-154300832#0"/>
    <trip id="bus241" type="bus_bus" depart="283.04" departLane="best" from="154880303#2" to="-130920004#4"/>
    <trip id="bus242" type="bus_bus" depart="284.22" departLane="best" from="-446749128#1" to="154168227#2"/>
    <trip id="bus243" type="bus_bus" depart="285.39" departLane="best" from="-130920004#4" to="154979267#0"/>
    <trip id="bus244" type="bus_bus" depart="286.56" departLane="best" departSpeed="max" from="-154797732#7" to="130920003#0"/>
    <trip id="bus245" type="bus_bus" depart="287.74" departLane="best" from="-153474797#10" to="-441354964#0"/>
    <trip id="bus246" type="bus_bus" depart="288.91" departLane="best" departSpeed="max" from="-169923312" to="-206785643#6"/>
    <trip id="bus247" type="bus_bus" depart="290.09" departLane="best" from="205860368#3" to="-441354964#0"/>
    <trip id="bus250" type="bus_bus" depart="293.61" departLane="best" from="-130920000#1" to="154166040#4"/>
    <trip id="bus251" type="bus_bus" depart="294.79" departLane="best" from="947581041" to="-225052928#0"/>
    <trip id="bus252" type="bus_bus" depart="295.96" departLane="best" departSpeed="max" from="155445053#0" to="205860390"/>
    <trip id="bus253" type="bus_bus" depart="297.13" departLane="best" from="155446867" to="205860353#3"/>
    <trip id="bus254" type="bus_bus" depart="298.31" departLane="best" departSpeed="max" from="512706849#0" to="-169923277#5"/>
    <trip id="bus255" type="bus_bus" depart="299.48" departLane="best" from="-130920000#5" to="-154797806"/>
    <trip id="bus256" type="bus_bus" depart="300.66" departLane="best" from="-154797679#4" to="169923245#0"/>
    <trip id="bus257" type="bus_bus" depart="301.83" departLane="best" from="154166106#2" to="-169923331#2"/>
    <trip id="bus258" type="bus_bus" depart="303.01" departLane="best" departSpeed="max" from="171309450#0" to="205860368#2"/>
    <trip id="bus259" type="bus_bus" depart="304.18" departLane="best" departSpeed="max" from="-154797901#4" to="154797803#0"/>
    <trip id="bus260" type="bus_bus" depart="305.36" departLane="best" from="205860311#3" to="-154168197"/>
    <trip id="bus261" type="bus_bus" depart="306.53" departLane="best" from="205860591" to="570276151#3"/>
    <trip id="bus263" type="bus_bus" depart="308.88" departLane="best" from="-205860473#1" to="169923270#3"/>
    <trip id="bus264" type="bus_bus" depart="310.05" departLane="best" departSpeed="max" from="570276149#0" to="-512705363"/>