<?xml version="1.0" encoding="UTF-8"?>
<!-- generated on 2021-06-20 18:11:43.908028 by $Id$ UNKNOWN
  options: 
-->
<routes xmlns:xsi="http://www.w3.org/2001/XMLSchema-instance" xsi:noNamespaceSchemaLocation="http://sumo.dlr.de/xsd/routes_file.xsd">
    <vType id="ped_pedestrian" vClass="pedestrian"/>
    <person id="ped0" depart="0.00" type="ped_pedestrian">
        <walk from="205860311#10" to="-130920000#4"/>
    </person>
    <person id="ped1" depart="0.60" type="ped_pedestrian">
        <walk from="-225052927#2" to="-205860463#0"/>
    </person>
    <person id="ped2" depart="1.20" type="ped_pedestrian">
        <walk from="206785669#3" to="205860438"/>
    </person>
    <person id="ped3" depart="1.80" type="ped_pedestrian">
        <walk from="544381453#3" to="-154157925#3"/>
    </person>
    <person id="ped4" depart="2.40" type="ped_pedestrian">
        <walk from="130920001#5" to="-130920002#2"/>
    </person>
    <person id="ped5" depart="3.01" type="ped_pedestrian">
        <walk from="-205860456#2" to="154157918#0"/>
    </person>
    <person id="ped6" depart="3.61" type="ped_pedestrian">
        <walk from="-130920001#2" to="-205860381#0"/>
    </person>
    <person id="ped7" depart="4.21" type="ped_pedestrian">
        <walk from="-205860460#3" to="169923246#0"/>
    </person>
    <person id="ped8" depart="4.81" type="ped_pedestrian">
        <walk from="259262958#3" to="-130882581#2"/>
    </person>
    <person id="ped9" depart="5.41" type="ped_pedestrian">
        <walk from="245665884" to="205860535#5"/>
    </person>
    <person id="ped10" depart="6.01" type="ped_pedestrian">
        <walk from="911135581#1" to="-570276159#1"/>
    </person>
    <person id="ped11" depart="6.61" type="ped_pedestrian">
        <walk from="-154157946#1" to="-154166025#1"/>
    </person>
    <person id="ped12" depart="7.21" type="ped_pedestrian">
        <walk from="419930293#1" to="169923334#4"/>
    </person>
    <person id="ped13" depart="7.82" type="ped_pedestrian">
        <walk from="247366429#1" to="206785643#7"/>
    </person>
    <person id="ped14" depart="8.42" type="ped_pedestrian">
        <walk from="154166090#2" to="915811867#2"/>
    </person>
    <person id="ped15" depart="9.02" type="ped_pedestrian">
        <walk from="-924756877#0" to="154913992"/>
    </person>
    <person id="ped16" depart="9.62" type="ped_pedestrian">
        <walk from="205860574#3" to="-152907240"/>
    </person>
    <person id="ped17" depart="10.22" type="ped_pedestrian">
        <walk from="-205860592" to="-380698881#5"/>
    </person>
    <person id="ped18" depart="10.82" type="ped_pedestrian">
        <walk from="-153481117#2" to="-206785643#0"/>
    </person>
    <person id="ped19" depart="11.42" type="ped_pedestrian">
        <walk from="205860272#4" to="-915429556#0"/>
    </person>
    <person id="ped20" depart="12.02" type="ped_pedestrian">
        <walk from="-915689632" to="-205860399#2"/>
    </person>
    <person id="ped21" depart="12.62" type="ped_pedestrian">
        <walk from="-206789202#6" to="853028547#1"/>
    </person>
    <person id="ped22" depart="13.23" type="ped_pedestrian">
        <walk from="205860317#4" to="171309448#3"/>
    </person>
    <person id="ped23" depart="13.83" type="ped_pedestrian">
        <walk from="-171309448#5" to="206785643#5"/>
    </person>
    <person id="ped24" depart="14.43" type="ped_pedestrian">
        <walk from="-169923332#1" to="-924771937"/>
    </person>
    <person id="ped25" depart="15.03" type="ped_pedestrian">
        <walk from="926212705#0" to="205860311#11"/>
    </person>
    <person id="ped26" depart="15.63" type="ped_pedestrian">
        <walk from="154979235#1" to="205860461#1"/>
    </person>
    <person id="ped27" depart="16.23" type="ped_pedestrian">
        <walk from="385256881#2" to="206785764#0"/>
    </person>
    <person id="ped28" depart="16.83" type="ped_pedestrian">
        <walk from="-205860626" to="-130920004#0"/>
    </person>
    <person id="ped29" depart="17.43" type="ped_pedestrian">
        <walk from="-476708485#1" to="-206789204"/>
    </person>
    <person id="ped30" depart="18.03" type="ped_pedestrian">
        <walk from="-205860401#0" to="888777002#6"/>
    </person>
    <person id="ped31" depart="18.64" type="ped_pedestrian">
        <walk from="476998473#0" to="-476708484#0"/>
    </person>
    <person id="ped32" depart="19.24" type="ped_pedestrian">
        <walk from="205860371#1" to="130877765#1"/>
    </person>
    <person id="ped33" depart="19.84" type="ped_pedestrian">
        <walk from="608946462#1" to="152907255#2"/>
    </person>
    <person id="ped34" depart="20.44" type="ped_pedestrian">
        <walk from="-206789198#4" to="-206785675#2"/>
    </person>
    <person id="ped35" depart="21.04" type="ped_pedestrian">
        <walk from="154979253#1" to="-206785771"/>
    </person>
    <person id="ped36" depart="21.64" type="ped_pedestrian">
        <walk from="162945054#0" to="570276148#0"/>
    </person>
    <person id="ped37" depart="22.24" type="ped_pedestrian">
        <walk from="130882582#2" to="-205860460#0"/>
    </person>
    <person id="ped38" depart="22.84" type="ped_pedestrian">
        <walk from="926644051#1" to="154157925#3"/>
    </person>
    <person id="ped39" depart="23.45" type="ped_pedestrian">
        <walk from="-154157939#2" to="-152907262#1"/>
    </person>
    <person id="ped40" depart="24.05" type="ped_pedestrian">
        <walk from="206789209" to="130920001#5"/>
    </person>
    <person id="ped41" depart="24.65" type="ped_pedestrian">
        <walk from="-153474808#5" to="-926212702"/>
    </person>
    <person id="ped42" depart="25.25" type="ped_pedestrian">
        <walk from="915689633#3" to="444492533#2"/>
    </person>
    <person id="ped43" depart="25.85" type="ped_pedestrian">
        <walk from="-130883281#2" to="205860664#2"/>
    </person>
    <person id="ped44" depart="26.45" type="ped_pedestrian">
        <walk from="-206789202#5" to="205860311#14"/>
    </person>
    <person id="ped45" depart="27.05" type="ped_pedestrian">
        <walk from="-154166080#1" to="130921073#5"/>
    </person>
    <person id="ped46" depart="27.65" type="ped_pedestrian">
        <walk from="476998472#1" to="-206789198#0"/>
    </person>
    <person id="ped47" depart="28.25" type="ped_pedestrian">
        <walk from="154154167#2" to="-171309455#0"/>
    </person>
    <person id="ped48" depart="28.86" type="ped_pedestrian">
        <walk from="608935868" to="476708479"/>
    </person>
    <person id="ped49" depart="29.46" type="ped_pedestrian">
        <walk from="-439478173#1" to="205860311#0"/>
    </person>
    <person id="ped50" depart="30.06" type="ped_pedestrian">
        <walk from="171309448#3" to="-169923246#2"/>
    </person>
    <person id="ped51" depart="30.66" type="ped_pedestrian">
        <walk from="206785741" to="154166105#2"/>
    </person>
    <person id="ped52" depart="31.26" type="ped_pedestrian">
        <walk from="206785767#1" to="154166060#0"/>
    </person>
    <person id="ped53" depart="31.86" type="ped_pedestrian">
        <walk from="-129213020#1" to="-512705361"/>
    </person>
    <person id="ped54" depart="32.46" type="ped_pedestrian">
        <walk from="476998475#3" to="380698882"/>
    </person>
    <person id="ped55" depart="33.06" type="ped_pedestrian">
        <walk from="476998475#1" to="911098577#0"/>
    </person>
    <person id="ped56" depart="33.67" type="ped_pedestrian">
        <walk from="-154157920#1" to="153474821#4"/>
    </person>
    <person id="ped57" depart="34.27" type="ped_pedestrian">
        <walk from="-153474821#1" to="206785735"/>
    </person>
    <person id="ped58" depart="34.87" type="ped_pedestrian">
        <walk from="206785747" to="-154979258#0"/>
    </person>
    <person id="ped59" depart="35.47" type="ped_pedestrian">
        <walk from="153474797#3" to="154880303#4"/>
    </person>
    <person id="ped60" depart="36.07" type="ped_pedestrian">
        <walk from="-206789202#0" to="476708485#3"/>
    </person>
    <person id="ped61" depart="36.67" type="ped_pedestrian">
        <walk from="-205860388#0" to="-444492539"/>
    </person>
    <person id="ped62" depart="37.27" type="ped_pedestrian">
        <walk from="926532046" to="205860359#1"/>
    </person>
    <person id="ped63" depart="37.87" type="ped_pedestrian">
        <walk from="130921076#1" to="154157950"/>
    </person>
    <person id="ped64" depart="38.47" type="ped_pedestrian">
        <walk from="-154913992" to="-205860475#1"/>
    </person>
    <person id="ped65" depart="39.08" type="ped_pedestrian">
        <walk from="-570276162#2" to="169359373#0"/>
    </person>
    <person id="ped66" depart="39.68" type="ped_pedestrian">
        <walk from="-205860669#0" to="-205860460#3"/>
    </person>
    <person id="ped67" depart="40.28" type="ped_pedestrian">
        <walk from="-153481090#2" to="191519133#7"/>
    </person>
    <person id="ped68" depart="40.88" type="ped_pedestrian">
        <walk from="-205860626" to="570276153#3"/>
    </person>
    <person id="ped69" depart="41.48" type="ped_pedestrian">
        <walk from="-206785663#2" to="205860400#0"/>
    </person>
    <person id="ped70" depart="42.08" type="ped_pedestrian">
        <walk from="-205860427#1" to="-154979267#2"/>
    </person>
    <person id="ped71" depart="42.68" type="ped_pedestrian">
        <walk from="853028546#1" to="154979278#0"/>
    </person>
    <person id="ped72" depart="43.28" type="ped_pedestrian">
        <walk from="-154166025#1" to="130920950#1"/>
    </person>
    <person id="ped73" depart="43.88" type="ped_pedestrian">
        <walk from="206785643#5" to="205860427#1"/>
    </person>
    <person id="ped74" depart="44.49" type="ped_pedestrian">
        <walk from="924756877#1" to="-154166026#1"/>
    </person>
    <person id="ped75" depart="45.09" type="ped_pedestrian">
        <walk from="130883281#0" to="-570276163#2"/>
    </person>
    <person id="ped76" depart="45.69" type="ped_pedestrian">
        <walk from="-206785681#5" to="612408548#2"/>
    </person>
    <person id="ped77" depart="46.29" type="ped_pedestrian">
        <walk from="154880303#5" to="-152907325#1"/>
    </person>
    <person id="ped78" depart="46.89" type="ped_pedestrian">
        <walk from="926652108" to="380698889#0"/>
    </person>
    <person id="ped79" depart="47.49" type="ped_pedestrian">
        <walk from="439478173#0" to="-170773053#3"/>
    </person>
    <person id="ped80" depart="48.09" type="ped_pedestrian">
        <walk from="-924756877#1" to="925006918"/>
    </person>
    <person id="ped81" depart="48.69" type="ped_pedestrian">
        <walk from="-206789202#0" to="206785776#1"/>
    </person>
    <person id="ped82" depart="49.30" type="ped_pedestrian">
        <walk from="911135581#2" to="926644046"/>
    </person>
    <person id="ped83" depart="49.90" type="ped_pedestrian">
        <walk from="154979233#0" to="205860654#7"/>
    </person>
    <person id="ped84" depart="50.50" type="ped_pedestrian">
        <walk from="915447947#1" to="155035525#1"/>
    </person>
    <person id="ped85" depart="51.10" type="ped_pedestrian">
        <walk from="154295978#3" to="206785705#3"/>
    </person>
    <person id="ped86" depart="51.70" type="ped_pedestrian">
        <walk from="-153474792#0" to="157935618#3"/>
    </person>
    <person id="ped87" depart="52.30" type="ped_pedestrian">
        <walk from="154154170#2" to="441354965#1"/>
    </person>
    <person id="ped88" depart="52.90" type="ped_pedestrian">
        <walk from="-153481118#0" to="-191519133#4"/>
    </person>
    <person id="ped89" depart="53.50" type="ped_pedestrian">
        <walk from="169923282#5" to="205860428#3"/>
    </person>
    <person id="ped90" depart="54.10" type="ped_pedestrian">
        <walk from="544381453#1" to="-206785675#1"/>
    </person>
    <person id="ped91" depart="54.71" type="ped_pedestrian">
        <walk from="130920000#4" to="157935618#1"/>
    </person>
    <person id="ped92" depart="55.31" type="ped_pedestrian">
        <walk from="154166032" to="815117305#2"/>
    </person>
    <person id="ped93" depart="55.91" type="ped_pedestrian">
        <walk from="-205860389#3" to="205860654#0"/>
    </person>
    <person id="ped94" depart="56.51" type="ped_pedestrian">
        <walk from="-206785664#0" to="130877765#2"/>
    </person>
    <person id="ped95" depart="57.11" type="ped_pedestrian">
        <walk from="205860425#0" to="-441354964#1"/>
    </person>
    <person id="ped96" depart="57.71" type="ped_pedestrian">
        <walk from="-476998466" to="206785708#0"/>
    </person>
    <person id="ped97" depart="58.31" type="ped_pedestrian">
        <walk from="-153481094#1" to="152907255#1"/>
    </person>
    <person id="ped98" depart="58.91" type="ped_pedestrian">
        <walk from="926644051#4" to="926644048"/>
    </person>
    <person id="ped99" depart="59.52" type="ped_pedestrian">
        <walk from="-153481097" to="-205860425#3"/>
    </person>
    <person id="ped100" depart="60.12" type="ped_pedestrian">
        <walk from="-206789202#0" to="815117303"/>
    </person>
    <person id="ped101" depart="60.72" type="ped_pedestrian">
        <walk from="512705362" to="476998476#1"/>
    </person>
    <person id="ped102" depart="61.32" type="ped_pedestrian">
        <walk from="-915453147" to="-169923311#1"/>
    </person>
    <person id="ped103" depart="61.92" type="ped_pedestrian">
        <walk from="380698884#0" to="205860574#0"/>
    </person>
    <person id="ped104" depart="62.52" type="ped_pedestrian">
        <walk from="205860368#0" to="-130882582#2"/>
    </person>
    <person id="ped105" depart="63.12" type="ped_pedestrian">
        <walk from="368167200#2" to="-441354964#0"/>
    </person>
    <person id="ped106" depart="63.72" type="ped_pedestrian">
        <walk from="205860389#4" to="856106889"/>
    </person>
    <person id="ped107" depart="64.32" type="ped_pedestrian">
        <walk from="-154166060#1" to="154913994"/>
    </person>
    <person id="ped108" depart="64.93" type="ped_pedestrian">
        <walk from="-206789220#1" to="170773053#2"/>
    </person>
    <person id="ped109" depart="65.53" type="ped_pedestrian">
        <walk from="205860654#5" to="-205860389#11"/>
    </person>
    <person id="ped110" depart="66.13" type="ped_pedestrian">
        <walk from="205860272#0" to="-206789198#2"/>
    </person>
    <person id="ped111" depart="66.73" type="ped_pedestrian">
        <walk from="419930291#2" to="-154157945"/>
    </person>
    <person id="ped112" depart="67.33" type="ped_pedestrian">
        <walk from="130920002#1" to="-235767102#1"/>
    </person>
    <person id="ped113" depart="67.93" type="ped_pedestrian">
        <walk from="-130877765#0" to="206785760#5"/>
    </person>
    <person id="ped114" depart="68.53" type="ped_pedestrian">
        <walk from="205860273#4" to="-206785765#4"/>
    </person>
    <person id="ped115" depart="69.13" type="ped_pedestrian">
        <walk from="206785675#2" to="154913989"/>
    </person>
    <person id="ped116" depart="69.73" type="ped_pedestrian">
        <walk from="130920004#4" to="-130882583#3"/>
    </person>
    <person id="ped117" depart="70.34" type="ped_pedestrian">
        <walk from="570276152#2" to="154305445#1"/>
    </person>
    <person id="ped118" depart="70.94" type="ped_pedestrian">
        <walk from="380698884#3" to="155591630"/>
    </person>
    <person id="ped119" depart="71.54" type="ped_pedestrian">
        <walk from="-157935618#1" to="-154979253#0"/>
    </person>
    <person id="ped120" depart="72.14" type="ped_pedestrian">
        <walk from="-444492533#4" to="570276148#3"/>
    </person>
    <person id="ped121" depart="72.74" type="ped_pedestrian">
        <walk from="570276148#3" to="-205860400#1"/>
    </person>
    <person id="ped122" depart="73.34" type="ped_pedestrian">
        <walk from="206785767#5" to="527267081#0"/>
    </person>
    <person id="ped123" depart="73.94" type="ped_pedestrian">
        <walk from="444492538" to="917362968"/>
    </person>
    <person id="ped124" depart="74.54" type="ped_pedestrian">
        <walk from="29011863#3" to="512705363"/>
    </person>
    <person id="ped125" depart="75.15" type="ped_pedestrian">
        <walk from="-130920000#3" to="206785669#3"/>
    </person>
    <person id="ped126" depart="75.75" type="ped_pedestrian">
        <walk from="-570276152#2" to="690041327"/>
    </person>
    <person id="ped127" depart="76.35" type="ped_pedestrian">
        <walk from="29011863#3" to="-206789202#5"/>
    </person>
    <person id="ped128" depart="76.95" type="ped_pedestrian">
        <walk from="206789198#1" to="-154166066#1"/>
    </person>
    <person id="ped129" depart="77.55" type="ped_pedestrian">
        <walk from="476708485#1" to="444491948#1"/>
    </person>
    <person id="ped130" depart="78.15" type="ped_pedestrian">
        <walk from="206789218#1" to="-205860564"/>
    </person>
    <person id="ped131" depart="78.75" type="ped_pedestrian">
        <walk from="-130920000#0" to="-205860360#3"/>
    </person>
    <person id="ped132" depart="79.35" type="ped_pedestrian">
        <walk from="-570276149#1" to="444492537"/>
    </person>
    <person id="ped133" depart="79.95" type="ped_pedestrian">
        <walk from="205860311#16" to="130882582#3"/>
    </person>
    <person id="ped134" depart="80.56" type="ped_pedestrian">
        <walk from="923743991" to="154166090#2"/>
    </person>
    <person id="ped135" depart="81.16" type="ped_pedestrian">
        <walk from="915689633#1" to="-171309455#0"/>
    </person>
    <person id="ped136" depart="81.76" type="ped_pedestrian">
        <walk from="914925568#0" to="-206789202#1"/>
    </person>
    <person id="ped137" depart="82.36" type="ped_pedestrian">
        <walk from="206785643#3" to="-476708478#0"/>
    </person>
    <person id="ped138" depart="82.96" type="ped_pedestrian">
        <walk from="170773053#6" to="154157935#1"/>
    </person>
    <person id="ped139" depart="83.56" type="ped_pedestrian">
        <walk from="-926483183#0" to="155035507#1"/>
    </person>
    <person id="ped140" depart="84.16" type="ped_pedestrian">
        <walk from="-206785732#1" to="205860614#2"/>
    </person>
    <person id="ped141" depart="84.76" type="ped_pedestrian">
        <walk from="-129213020#5" to="62277607#0"/>
    </person>
    <person id="ped142" depart="85.37" type="ped_pedestrian">
        <walk from="154166098#1" to="205860655#0"/>
    </person>
    <person id="ped143" depart="85.97" type="ped_pedestrian">
        <walk from="206785677#1" to="205860401#2"/>
    </person>
    <person id="ped144" depart="86.57" type="ped_pedestrian">
        <walk from="-914925568#1" to="-153474821#4"/>
    </person>
    <person id="ped145" depart="87.17" type="ped_pedestrian">
        <walk from="205860389#6" to="-570276151#0"/>
    </person>
    <person id="ped146" depart="87.77" type="ped_pedestrian">
        <walk from="-476708478#1" to="434309157"/>
    </person>
    <person id="ped147" depart="88.37" type="ped_pedestrian">
        <walk from="205860655#1" to="-441354964#2"/>
    </person>
    <person id="ped148" depart="88.97" type="ped_pedestrian">
        <walk from="-444492533#8" to="130883285#0"/>
    </person>
    <person id="ped149" depart="89.57" type="ped_pedestrian">
        <walk from="130883281#0" to="-385256883#1"/>
    </person>
    <person id="ped150" depart="90.17" type="ped_pedestrian">
        <walk from="-154979253#0" to="130920001#0"/>
    </person>
    <person id="ped151" depart="90.78" type="ped_pedestrian">
        <walk from="888777000#3" to="205860439#1"/>
    </person>
    <person id="ped152" depart="91.38" type="ped_pedestrian">
        <walk from="570276151#3" to="171309451#8"/>
    </person>
    <person id="ped153" depart="91.98" type="ped_pedestrian">
        <walk from="-441354964#4" to="154797759"/>
    </person>
    <person id="ped154" depart="92.58" type="ped_pedestrian">
        <walk from="-129213020#1" to="-380010054#0"/>
    </person>
    <person id="ped155" depart="93.18" type="ped_pedestrian">
        <walk from="130920949#4" to="155035531"/>
    </person>
    <person id="ped156" depart="93.78" type="ped_pedestrian">
        <walk from="141650107#1" to="-205860427#0"/>
    </person>
    <person id="ped157" depart="94.38" type="ped_pedestrian">
        <walk from="-154157918#5" to="154157946#1"/>
    </person>
    <person id="ped158" depart="94.98" type="ped_pedestrian">
        <walk from="191519140#6" to="-570276157#0"/>
    </person>
    <person id="ped159" depart="95.58" type="ped_pedestrian">
        <walk from="368167200#6" to="206785706#7"/>
    </person>
    <person id="ped160" depart="96.19" type="ped_pedestrian">
        <walk from="205860425#5" to="-205860475#1"/>
    </person>
    <person id="ped161" depart="96.79" type="ped_pedestrian">
        <walk from="-205860381#1" to="-130920000#2"/>
    </person>
    <person id="ped162" depart="97.39" type="ped_pedestrian">
        <walk from="-206785674#1" to="153474797#2"/>
    </person>
    <person id="ped163" depart="97.99" type="ped_pedestrian">
        <walk from="-205860367#2" to="205860534#8"/>
    </person>
    <person id="ped164" depart="98.59" type="ped_pedestrian">
        <walk from="153481113#2" to="-206785672#4"/>
    </person>
    <person id="ped165" depart="99.19" type="ped_pedestrian">
        <walk from="205860373#1" to="-130877768"/>
    </person>
    <person id="ped166" depart="99.79" type="ped_pedestrian">
        <walk from="206785706#6" to="206785760#2"/>
    </person>
    <person id="ped167" depart="100.39" type="ped_pedestrian">
        <walk from="-154166059#1" to="130920003#0"/>
    </person>
    <person id="ped168" depart="101.00" type="ped_pedestrian">
        <walk from="-171309451#7" to="911191085"/>
    </person>
    <person id="ped169" depart="101.60" type="ped_pedestrian">
        <walk from="154157951" to="-152907325#0"/>
    </person>
    <person id="ped170" depart="102.20" type="ped_pedestrian">
        <walk from="-206785681#3" to="434309157"/>
    </person>
    <person id="ped171" depart="102.80" type="ped_pedestrian">
        <walk from="205860398#2" to="925008264"/>
    </person>
    <person id="ped172" depart="103.40" type="ped_pedestrian">
        <walk from="544381453#13" to="171309451#10"/>
    </person>
    <person id="ped173" depart="104.00" type="ped_pedestrian">
        <walk from="205860655#0" to="154157909"/>
    </person>
    <person id="ped174" depart="104.60" type="ped_pedestrian">
        <walk from="544381459#1" to="206785681#1"/>
    </person>
    <person id="ped175" depart="105.20" type="ped_pedestrian">
        <walk from="153474797#10" to="-206785760#6"/>
    </person>
    <person id="ped176" depart="105.80" type="ped_pedestrian">
        <walk from="206785747" to="154166026#0"/>
    </person>
    <person id="ped177" depart="106.41" type="ped_pedestrian">
        <walk from="191519125#4" to="-225052927#1"/>
    </person>
    <person id="ped178" depart="107.01" type="ped_pedestrian">
        <walk from="-153481113#0" to="-368498637"/>
    </person>
    <person id="ped179" depart="107.61" type="ped_pedestrian">
        <walk from="-206789219#1" to="-476998473#0"/>
    </person>
    <person id="ped180" depart="108.21" type="ped_pedestrian">
        <walk from="154166105#5" to="-155035447"/>
    </person>
    <person id="ped181" depart="108.81" type="ped_pedestrian">
        <walk from="-205860675#1" to="205860534#1"/>
    </person>
    <person id="ped182" depart="109.41" type="ped_pedestrian">
        <walk from="205860592" to="-153474808#7"/>
    </person>
    <person id="ped183" depart="110.01" type="ped_pedestrian">
        <walk from="130883284#0" to="154295978#4"/>
    </person>
    <person id="ped184" depart="110.61" type="ped_pedestrian">
        <walk from="130919996" to="-205860392"/>
    </person>
    <person id="ped185" depart="111.22" type="ped_pedestrian">
        <walk from="130920000#6" to="570276153#1"/>
    </person>
    <person id="ped186" depart="111.82" type="ped_pedestrian">
        <walk from="157935618#2" to="205860534#6"/>
    </person>
    <person id="ped187" depart="112.42" type="ped_pedestrian">
        <walk from="444488634#1" to="206785747"/>
    </person>
    <person id="ped188" depart="113.02" type="ped_pedestrian">
        <walk from="-925008260" to="-130882581#0"/>
    </person>
    <person id="ped189" depart="113.62" type="ped_pedestrian">
        <walk from="-911098583#0" to="206785712"/>
    </person>
    <person id="ped190" depart="114.22" type="ped_pedestrian">
        <walk from="441354965#3" to="911135577#0"/>
    </person>
    <person id="ped191" depart="114.82" type="ped_pedestrian">
        <walk from="130920000#3" to="206785705#2"/>
    </person>
    <person id="ped192" depart="115.42" type="ped_pedestrian">
        <walk from="154342286" to="169923334#1"/>
    </person>
    <person id="ped193" depart="116.02" type="ped_pedestrian">
        <walk from="-205860461#0" to="-205860460#0"/>
    </person>
    <person id="ped194" depart="116.63" type="ped_pedestrian">
        <walk from="130921074#2" to="-130920002#0"/>
    </person>
    <person id="ped195" depart="117.23" type="ped_pedestrian">
        <walk from="-570276159#0" to="205860443#3"/>
    </person>
    <person id="ped196" depart="117.83" type="ped_pedestrian">
        <walk from="130883282#1" to="-169923334#4"/>
    </person>
    <person id="ped197" depart="118.43" type="ped_pedestrian">
        <walk from="152907345#2" to="-154979253#1"/>
    </person>
    <person id="ped198" depart="119.03" type="ped_pedestrian">
        <walk from="129213040#4" to="154979262#1"/>
    </person>
    <person id="ped199" depart="119.63" type="ped_pedestrian">
        <walk from="-130920001#3" to="205860311#2"/>
    </person>
    <person id="ped200" depart="120.23" type="ped_pedestrian">
        <walk from="-154979276#0" to="152907262#4"/>
    </person>
    <person id="ped201" depart="120.83" type="ped_pedestrian">
        <walk from="-152907325#0" to="-924756877#1"/>
    </person>
    <person id="ped202" depart="121.43" type="ped_pedestrian">
        <walk from="-205860401#2" to="-570276148#1"/>
    </person>
    <person id="ped203" depart="122.04" type="ped_pedestrian">
        <walk from="206785737" to="-924756877#1"/>
    </person>
    <person id="ped204" depart="122.64" type="ped_pedestrian">
        <walk from="206785708#1" to="380698883#0"/>
    </person>
    <person id="ped205" depart="123.24" type="ped_pedestrian">
        <walk from="-206785703#1" to="-154157905"/>
    </person>
    <person id="ped206" depart="123.84" type="ped_pedestrian">
        <walk from="-130888849" to="154166105#3"/>
    </person>
    <person id="ped207" depart="124.44" type="ped_pedestrian">
        <walk from="947581041" to="-911098577#2"/>
    </person>
    <person id="ped208" depart="125.04" type="ped_pedestrian">
        <walk from="205860359#2" to="206785771"/>
    </person>
    <person id="ped209" depart="125.64" type="ped_pedestrian">
        <walk from="911098583#0" to="-205860381#2"/>
    </person>
    <person id="ped210" depart="126.24" type="ped_pedestrian">
        <walk from="-130919995#2" to="-169923246#1"/>
    </person>
    <person id="ped211" depart="126.85" type="ped_pedestrian">
        <walk from="154979262#0" to="-205860456#0"/>
    </person>
    <person id="ped212" depart="127.45" type="ped_pedestrian">
        <walk from="205860547" to="206785752#0"/>
    </person>
    <person id="ped213" depart="128.05" type="ped_pedestrian">
        <walk from="-171309448#0" to="171309448#11"/>
    </person>
    <person id="ped214" depart="128.65" type="ped_pedestrian">
        <walk from="206785705#3" to="-154166097#3"/>
    </person>
    <person id="ped215" depart="129.25" type="ped_pedestrian">
        <walk from="371834354" to="915429557#1"/>
    </person>
    <person id="ped216" depart="129.85" type="ped_pedestrian">
        <walk from="-154166066#1" to="-130920000#6"/>
    </person>
    <person id="ped217" depart="130.45" type="ped_pedestrian">
        <walk from="-446749127" to="205860439#1"/>
    </person>
    <person id="ped218" depart="131.05" type="ped_pedestrian">
        <walk from="911191085" to="130877767#0"/>
    </person>
    <person id="ped219" depart="131.65" type="ped_pedestrian">
        <walk from="205860649#0" to="-153481111#1"/>
    </person>
    <person id="ped220" depart="132.26" type="ped_pedestrian">
        <walk from="205860521" to="191519125#6"/>
    </person>
    <person id="ped221" depart="132.86" type="ped_pedestrian">
        <walk from="-154913992" to="924756877#0"/>
    </person>
    <person id="ped222" depart="133.46" type="ped_pedestrian">
        <walk from="206785775#0" to="-910814221#2"/>
    </person>
    <person id="ped223" depart="134.06" type="ped_pedestrian">
        <walk from="130920943" to="-915689633#1"/>
    </person>
    <person id="ped224" depart="134.66" type="ped_pedestrian">
        <walk from="205860272#4" to="380698877#5"/>
    </person>
    <person id="ped225" depart="135.26" type="ped_pedestrian">
        <walk from="205860595" to="130921074#1"/>
    </person>
    <person id="ped226" depart="135.86" type="ped_pedestrian">
        <walk from="-206789216#0" to="259262953"/>
    </person>
    <person id="ped227" depart="136.46" type="ped_pedestrian">
        <walk from="130921074#1" to="206785661#1"/>
    </person>
    <person id="ped228" depart="137.07" type="ped_pedestrian">
        <walk from="380698881#3" to="-154157925#2"/>
    </person>
    <person id="ped229" depart="137.67" type="ped_pedestrian">
        <walk from="-924756877#1" to="-130920001#8"/>
    </person>
    <person id="ped230" depart="138.27" type="ped_pedestrian">
        <walk from="-205860401#3" to="225052910#3"/>
    </person>
    <person id="ped231" depart="138.87" type="ped_pedestrian">
        <walk from="205860556" to="-235767102#0"/>
    </person>