<?xml version="1.0" encoding="UTF-8"?>
<!-- generated on 2021-06-20 15:40:52.610624 by $Id$ UNKNOWN
  options: 
-->
<routes xmlns:xsi="http://www.w3.org/2001/XMLSchema-instance" xsi:noNamespaceSchemaLocation="http://sumo.dlr.de/xsd/routes_file.xsd">
    <vType id="ped_pedestrian" vClass="pedestrian"/>
    <person id="ped0" depart="0.00" type="ped_pedestrian">
        <personTrip from="173550588#0" to="-141650072#1" modes="public"/>
    </person>
    <person id="ped1" depart="0.44" type="ped_pedestrian">
        <personTrip from="-206785681#6" to="-205860384#2" modes="public"/>
    </person>
    <person id="ped2" depart="0.88" type="ped_pedestrian">
        <personTrip from="205860649#0" to="205860372#1" modes="public"/>
    </person>
    <person id="ped3" depart="1.32" type="ped_pedestrian">
        <personTrip from="461592218#2" to="-154166090#1" modes="public"/>
    </person>
    <person id="ped4" depart="1.76" type="ped_pedestrian">
        <personTrip from="130920003#2" to="-141650113#5" modes="public"/>
    </person>
    <person id="ped5" depart="2.20" type="ped_pedestrian">
        <personTrip from="-205860371#1" to="154166076#0" modes="public"/>
    </person>
    <person id="ped6" depart="2.64" type="ped_pedestrian">
        <personTrip from="-141650107#0" to="-191519125#0" modes="public"/>
    </person>
    <person id="ped7" depart="3.07" type="ped_pedestrian">
        <personTrip from="191519133#7" to="154797738" modes="public"/>
    </person>
    <person id="ped8" depart="3.51" type="ped_pedestrian">
        <personTrip from="-205860374#0" to="155445053#1" modes="public"/>
    </person>
    <person id="ped9" depart="3.95" type="ped_pedestrian">
        <personTrip from="225052923#4" to="-130882583#2" modes="public"/>
    </person>
    <person id="ped10" depart="4.39" type="ped_pedestrian">
        <personTrip from="225052910#2" to="205860437" modes="public"/>
    </person>
    <person id="ped11" depart="4.83" type="ped_pedestrian">
        <personTrip from="-476998469#0" to="-155221632#0" modes="public"/>
    </person>
    <person id="ped12" depart="5.27" type="ped_pedestrian">
        <personTrip from="911135575#1" to="-460223841#3" modes="public"/>
    </person>
    <person id="ped13" depart="5.71" type="ped_pedestrian">
        <personTrip from="-154166105#2" to="-154168197" modes="public"/>
    </person>
    <person id="ped14" depart="6.15" type="ped_pedestrian">
        <personTrip from="380698884#4" to="169923277#2" modes="public"/>
    </person>
    <person id="ped15" depart="6.59" type="ped_pedestrian">
        <personTrip from="225052914#0" to="205860612#2" modes="public"/>
    </person>
    <person id="ped16" depart="7.03" type="ped_pedestrian">
        <personTrip from="154797688#0" to="915689633#3" modes="public"/>
    </person>
    <person id="ped17" depart="7.47" type="ped_pedestrian">
        <personTrip from="-915447947#1" to="154797804#0" modes="public"/>
    </person>
    <person id="ped18" depart="7.91" type="ped_pedestrian">
        <personTrip from="338713175" to="169923334#4" modes="public"/>
    </person>
    <person id="ped19" depart="8.34" type="ped_pedestrian">
        <personTrip from="441354964#1" to="154979267#2" modes="public"/>
    </person>
    <person id="ped20" depart="8.78" type="ped_pedestrian">
        <personTrip from="205860460#1" to="-153474797#7" modes="public"/>
    </person>
    <person id="ped21" depart="9.22" type="ped_pedestrian">
        <personTrip from="-205860389#2" to="-206789218#0" modes="public"/>
    </person>
    <person id="ped22" depart="9.66" type="ped_pedestrian">
        <personTrip from="-154166057#2" to="-205860400#3" modes="public"/>
    </person>
    <person id="ped23" depart="10.10" type="ped_pedestrian">
        <personTrip from="-154247167#0" to="-206785730" modes="public"/>
    </person>
    <person id="ped24" depart="10.54" type="ped_pedestrian">
        <personTrip from="173550550" to="-911098583#1" modes="public"/>
    </person>
    <person id="ped25" depart="10.98" type="ped_pedestrian">
        <personTrip from="-911191084" to="-205860353#6" modes="public"/>
    </person>
    <person id="ped26" depart="11.42" type="ped_pedestrian">
        <personTrip from="-206785664#0" to="612408550#2" modes="public"/>
    </person>
    <person id="ped27" depart="11.86" type="ped_pedestrian">
        <personTrip from="191519126#1" to="169923289#1" modes="public"/>
    </person>
    <person id="ped28" depart="12.30" type="ped_pedestrian">
        <personTrip from="-169923300" to="205860607" modes="public"/>
    </person>
    <person id="ped29" depart="12.74" type="ped_pedestrian">
        <personTrip from="-169923268#1" to="-915689633#0" modes="public"/>
    </person>
    <person id="ped30" depart="13.18" type="ped_pedestrian">
        <personTrip from="925006918" to="173550588#2" modes="public"/>
    </person>
    <person id="ped31" depart="13.62" type="ped_pedestrian">
        <personTrip from="154797851" to="205860389#10" modes="public"/>
    </person>
    <person id="ped32" depart="14.05" type="ped_pedestrian">
        <personTrip from="380698877#5" to="206785744#3" modes="public"/>
    </person>
    <person id="ped33" depart="14.49" type="ped_pedestrian">
        <personTrip from="-205860389#7" to="-141650129#8" modes="public"/>
    </person>
    <person id="ped34" depart="14.93" type="ped_pedestrian">
        <personTrip from="-380698887#0" to="-206785665#1" modes="public"/>
    </person>
    <person id="ped35" depart="15.37" type="ped_pedestrian">
        <personTrip from="-205860359#1" to="815117304" modes="public"/>
    </person>
    <person id="ped36" depart="15.81" type="ped_pedestrian">
        <personTrip from="460223840" to="-380698883#2" modes="public"/>
    </person>
    <person id="ped37" depart="16.25" type="ped_pedestrian">
        <personTrip from="205860273#2" to="-926644051#1" modes="public"/>
    </person>
    <person id="ped38" depart="16.69" type="ped_pedestrian">
        <personTrip from="544381453#7" to="153474792#2" modes="public"/>
    </person>
    <person id="ped39" depart="17.13" type="ped_pedestrian">
        <personTrip from="-206785659#1" to="-205860463#1" modes="public"/>
    </person>
    <person id="ped40" depart="17.57" type="ped_pedestrian">
        <personTrip from="154797890#0" to="-205860675#5" modes="public"/>
    </person>
    <person id="ped41" depart="18.01" type="ped_pedestrian">
        <personTrip from="155035507#1" to="476708484#1" modes="public"/>
    </person>
    <person id="ped42" depart="18.45" type="ped_pedestrian">
        <personTrip from="129213040#4" to="-205860372#1" modes="public"/>
    </person>
    <person id="ped43" depart="18.89" type="ped_pedestrian">
        <personTrip from="926644049" to="154166097#0" modes="public"/>
    </person>
    <person id="ped44" depart="19.32" type="ped_pedestrian">
        <personTrip from="-154166101#4" to="-153474808#4" modes="public"/>
    </person>
    <person id="ped45" depart="19.76" type="ped_pedestrian">
        <personTrip from="-154797679#8" to="171309451#9" modes="public"/>
    </person>
    <person id="ped46" depart="20.20" type="ped_pedestrian">
        <personTrip from="206789198#0" to="130920003#3" modes="public"/>
    </person>
    <person id="ped47" depart="20.64" type="ped_pedestrian">
        <personTrip from="-154157925#2" to="-917362969" modes="public"/>
    </person>
    <person id="ped48" depart="21.08" type="ped_pedestrian">
        <personTrip from="926523564" to="154300832#3" modes="public"/>
    </person>
    <person id="ped49" depart="21.52" type="ped_pedestrian">
        <personTrip from="915447947#0" to="441225645" modes="public"/>
    </person>
    <person id="ped50" depart="21.96" type="ped_pedestrian">
        <personTrip from="-130883284#2" to="205860535#5" modes="public"/>
    </person>
    <person id="ped51" depart="22.40" type="ped_pedestrian">
        <personTrip from="205860386#0" to="154797696#0" modes="public"/>
    </person>
    <person id="ped52" depart="22.84" type="ped_pedestrian">
        <personTrip from="-206785663#3" to="173550588#6" modes="public"/>
    </person>
    <person id="ped53" depart="23.28" type="ped_pedestrian">
        <personTrip from="-154797688#2" to="141650112#0" modes="public"/>
    </person>
    <person id="ped54" depart="23.72" type="ped_pedestrian">
        <personTrip from="152907333" to="911098581" modes="public"/>
    </person>
    <person id="ped55" depart="24.16" type="ped_pedestrian">
        <personTrip from="460222371#2" to="-206785643#1" modes="public"/>
    </person>
    <person id="ped56" depart="24.60" type="ped_pedestrian">
        <personTrip from="154166046" to="-169923332#3" modes="public"/>
    </person>
    <person id="ped57" depart="25.03" type="ped_pedestrian">
        <personTrip from="544381453#11" to="444492533#5" modes="public"/>
    </person>
    <person id="ped58" depart="25.47" type="ped_pedestrian">
        <personTrip from="-225052927#3" to="173550585" modes="public"/>
    </person>
    <person id="ped59" depart="25.91" type="ped_pedestrian">
        <personTrip from="169923289#0" to="-155035508#3" modes="public"/>
    </person>
    <person id="ped60" depart="26.35" type="ped_pedestrian">
        <personTrip from="206785681#6" to="154797715#6" modes="public"/>
    </person>
    <person id="ped61" depart="26.79" type="ped_pedestrian">
        <personTrip from="206785753#0" to="154356894#0" modes="public"/>
    </person>
    <person id="ped62" depart="27.23" type="ped_pedestrian">
        <personTrip from="-129213020#2" to="-441354964#0" modes="public"/>
    </person>
    <person id="ped63" depart="27.67" type="ped_pedestrian">
        <personTrip from="-130920001#6" to="608946462#1" modes="public"/>
    </person>
    <person id="ped64" depart="28.11" type="ped_pedestrian">
        <personTrip from="461492839#1" to="361645994#1" modes="public"/>
    </person>
    <person id="ped65" depart="28.55" type="ped_pedestrian">
        <personTrip from="-361645994#0" to="-153481113#4" modes="public"/>
    </person>
    <person id="ped66" depart="28.99" type="ped_pedestrian">
        <personTrip from="461109105#0" to="888777000#0" modes="public"/>
    </person>
    <person id="ped67" depart="29.43" type="ped_pedestrian">
        <personTrip from="-154166083#1" to="154157937#1" modes="public"/>
    </person>
    <person id="ped68" depart="29.87" type="ped_pedestrian">
        <personTrip from="-154157949#2" to="206785677#1" modes="public"/>
    </person>
    <person id="ped69" depart="30.30" type="ped_pedestrian">
        <personTrip from="206785706#2" to="-154797830" modes="public"/>
    </person>
    <person id="ped70" depart="30.74" type="ped_pedestrian">
        <personTrip from="153481118#1" to="154797786#0" modes="public"/>
    </person>
    <person id="ped71" depart="31.18" type="ped_pedestrian">
        <personTrip from="-206785659#2" to="444492537" modes="public"/>
    </person>
    <person id="ped72" depart="31.62" type="ped_pedestrian">
        <personTrip from="130920004#3" to="-205860359#4" modes="public"/>
    </person>
    <person id="ped73" depart="32.06" type="ped_pedestrian">
        <personTrip from="154797715#5" to="205860612#3" modes="public"/>
    </person>
    <person id="ped74" depart="32.50" type="ped_pedestrian">
        <personTrip from="-191519133#0" to="-372642301#1" modes="public"/>
    </person>
    <person id="ped75" depart="32.94" type="ped_pedestrian">
        <personTrip from="926483182#4" to="191519133#7" modes="public"/>
    </person>
    <person id="ped76" depart="33.38" type="ped_pedestrian">
        <personTrip from="141650123#1" to="154168190#1" modes="public"/>
    </person>
    <person id="ped77" depart="33.82" type="ped_pedestrian">
        <personTrip from="-154797778" to="-205860386#2" modes="public"/>
    </person>
    <person id="ped78" depart="34.26" type="ped_pedestrian">
        <personTrip from="-476708478#2" to="155221632#1" modes="public"/>
    </person>
    <person id="ped79" depart="34.70" type="ped_pedestrian">
        <personTrip from="-205860397#0" to="-205860373#2" modes="public"/>
    </person>
    <person id="ped80" depart="35.14" type="ped_pedestrian">
        <personTrip from="-154166023#4" to="173550528#0" modes="public"/>
    </person>
    <person id="ped81" depart="35.58" type="ped_pedestrian">
        <personTrip from="-205860389#7" to="512706849#1" modes="public"/>
    </person>
    <person id="ped82" depart="36.01" type="ped_pedestrian">
        <personTrip from="439478173#0" to="-154166023#4" modes="public"/>
    </person>
    <person id="ped83" depart="36.45" type="ped_pedestrian">
        <personTrip from="-205860427#0" to="205860359#4" modes="public"/>
    </person>
    <person id="ped84" depart="36.89" type="ped_pedestrian">
        <personTrip from="-205860365#0" to="-154797882#3" modes="public"/>
    </person>
    <person id="ped85" depart="37.33" type="ped_pedestrian">
        <personTrip from="612408549#0" to="154979237#0" modes="public"/>
    </person>
    <person id="ped86" depart="37.77" type="ped_pedestrian">
        <personTrip from="153481111#2" to="206785764#1" modes="public"/>
    </person>
    <person id="ped87" depart="38.21" type="ped_pedestrian">
        <personTrip from="225052914#2" to="-171309471" modes="public"/>
    </person>
    <person id="ped88" depart="38.65" type="ped_pedestrian">
        <personTrip from="-154168218#0" to="130921076#3" modes="public"/>
    </person>
    <person id="ped89" depart="39.09" type="ped_pedestrian">
        <personTrip from="130920938" to="153474821#0" modes="public"/>
    </person>
    <person id="ped90" depart="39.53" type="ped_pedestrian">
        <personTrip from="205860607" to="205860367#0" modes="public"/>
    </person>
    <person id="ped91" depart="39.97" type="ped_pedestrian">
        <personTrip from="918609219#1" to="-154168222#3" modes="public"/>
    </person>
    <person id="ped92" depart="40.41" type="ped_pedestrian">
        <personTrip from="130882581#3" to="-476998466" modes="public"/>
    </person>
    <person id="ped93" depart="40.85" type="ped_pedestrian">
        <personTrip from="441354964#1" to="-205860474#3" modes="public"/>
    </person>
    <person id="ped94" depart="41.28" type="ped_pedestrian">
        <personTrip from="-171309464#1" to="152907255#5" modes="public"/>
    </person>
    <person id="ped95" depart="41.72" type="ped_pedestrian">
        <personTrip from="130920003#2" to="-206785733" modes="public"/>
    </person>
    <person id="ped96" depart="42.16" type="ped_pedestrian">
        <personTrip from="-205860475#1" to="570276154#2" modes="public"/>
    </person>
    <person id="ped97" depart="42.60" type="ped_pedestrian">
        <personTrip from="152850233#14" to="441354964#0" modes="public"/>
    </person>
    <person id="ped98" depart="43.04" type="ped_pedestrian">
        <personTrip from="154797790" to="-153474818#1" modes="public"/>
    </person>
    <person id="ped99" depart="43.48" type="ped_pedestrian">
        <personTrip from="926644051#5" to="372642301#1" modes="public"/>
    </person>
    <person id="ped100" depart="43.92" type="ped_pedestrian">
        <personTrip from="915429559#1" to="570276163#0" modes="public"/>
    </person>
    <person id="ped101" depart="44.36" type="ped_pedestrian">
        <personTrip from="380698887#3" to="-169923277#5" modes="public"/>
    </person>
    <person id="ped102" depart="44.80" type="ped_pedestrian">
        <personTrip from="154157935#1" to="-205860361#7" modes="public"/>
    </person>
    <person id="ped103" depart="45.24" type="ped_pedestrian">
        <personTrip from="130877766" to="-153481117#2" modes="public"/>
    </person>
    <person id="ped104" depart="45.68" type="ped_pedestrian">
        <personTrip from="-915453148#1" to="919109806" modes="public"/>
    </person>
    <person id="ped105" depart="46.12" type="ped_pedestrian">
        <personTrip from="-206785659#2" to="206785763#4" modes="public"/>
    </person>
    <person id="ped106" depart="46.56" type="ped_pedestrian">
        <personTrip from="152907362#0" to="130920004#3" modes="public"/>
    </person>
    <person id="ped107" depart="46.99" type="ped_pedestrian">
        <personTrip from="911135575#1" to="926483183#0" modes="public"/>
    </person>
    <person id="ped108" depart="47.43" type="ped_pedestrian">
        <personTrip from="154797825" to="205860534#4" modes="public"/>
    </person>
    <person id="ped109" depart="47.87" type="ped_pedestrian">
        <personTrip from="-155035533" to="-225052923#4" modes="public"/>
    </person>
    <person id="ped110" depart="48.31" type="ped_pedestrian">
        <personTrip from="915429558#1" to="154979272#1" modes="public"/>
    </person>
    <person id="ped111" depart="48.75" type="ped_pedestrian">
        <personTrip from="154797730#6" to="205860673#4" modes="public"/>
    </person>
    <person id="ped112" depart="49.19" type="ped_pedestrian">
        <personTrip from="-153481113#0" to="155035501#1" modes="public"/>
    </person>
    <person id="ped113" depart="49.63" type="ped_pedestrian">
        <personTrip from="154166063" to="385256873#1" modes="public"/>
    </person>
    <person id="ped114" depart="50.07" type="ped_pedestrian">
        <personTrip from="-155591630" to="911135581#1" modes="public"/>
    </person>
    <person id="ped115" depart="50.51" type="ped_pedestrian">
        <personTrip from="-154166059#1" to="-171309451#10" modes="public"/>
    </person>
    <person id="ped116" depart="50.95" type="ped_pedestrian">
        <personTrip from="166907800#2" to="205860368#1" modes="public"/>
    </person>
    <person id="ped117" depart="51.39" type="ped_pedestrian">
        <personTrip from="-205860410#2" to="-154797767" modes="public"/>
    </person>
    <person id="ped118" depart="51.83" type="ped_pedestrian">
        <personTrip from="461592216#3" to="-205860461#7" modes="public"/>
    </person>
    <person id="ped119" depart="52.27" type="ped_pedestrian">
        <personTrip from="166907800#0" to="170773053#0" modes="public"/>
    </person>
    <person id="ped120" depart="52.70" type="ped_pedestrian">
        <personTrip from="130920001#6" to="155035496#1" modes="public"/>
    </person>
    <person id="ped121" depart="53.14" type="ped_pedestrian">
        <personTrip from="154247167#0" to="612403318#3" modes="public"/>
    </person>
    <person id="ped122" depart="53.58" type="ped_pedestrian">
        <personTrip from="-191519140#7" to="205860524#2" modes="public"/>
    </person>
    <person id="ped123" depart="54.02" type="ped_pedestrian">
        <personTrip from="-205860427#3" to="-926644051#1" modes="public"/>
    </person>
    <person id="ped124" depart="54.46" type="ped_pedestrian">
        <personTrip from="205860365#0" to="-225052930#2" modes="public"/>
    </person>
    <person id="ped125" depart="54.90" type="ped_pedestrian">
        <personTrip from="-380698887#3" to="206785643#7" modes="public"/>
    </person>
    <person id="ped126" depart="55.34" type="ped_pedestrian">
        <personTrip from="-154166025#3" to="153474789#4" modes="public"/>
    </person>
    <person id="ped127" depart="55.78" type="ped_pedestrian">
        <personTrip from="926644051#2" to="926523564" modes="public"/>
    </person>
    <person id="ped128" depart="56.22" type="ped_pedestrian">
        <personTrip from="-154166026#1" to="-205860361#0" modes="public"/>
    </person>
    <person id="ped129" depart="56.66" type="ped_pedestrian">
        <personTrip from="-206785659#2" to="612403312#1" modes="public"/>
    </person>
    <person id="ped130" depart="57.10" type="ped_pedestrian">
        <personTrip from="461492925#2" to="461492839#3" modes="public"/>
    </person>
    <person id="ped131" depart="57.54" type="ped_pedestrian">
        <personTrip from="-911135578#4" to="-156352423#0" modes="public"/>
    </person>
    <person id="ped132" depart="57.97" type="ped_pedestrian">
        <personTrip from="368167200#3" to="205860456#2" modes="public"/>
    </person>
    <person id="ped133" depart="58.41" type="ped_pedestrian">
        <personTrip from="169923311#5" to="924667126#1" modes="public"/>
    </person>
    <person id="ped134" depart="58.85" type="ped_pedestrian">
        <personTrip from="205860272#1" to="-130883281#1" modes="public"/>
    </person>
    <person id="ped135" depart="59.29" type="ped_pedestrian">
        <personTrip from="235423764" to="-225052930#0" modes="public"/>
    </person>
    <person id="ped136" depart="59.73" type="ped_pedestrian">
        <personTrip from="205860311#6" to="636361512" modes="public"/>
    </person>
    <person id="ped137" depart="60.17" type="ped_pedestrian">
        <personTrip from="-154797890#3" to="-154797732#0" modes="public"/>
    </person>
    <person id="ped138" depart="60.61" type="ped_pedestrian">
        <personTrip from="-154797671#1" to="154797807#0" modes="public"/>
    </person>
    <person id="ped139" depart="61.05" type="ped_pedestrian">
        <personTrip from="-206785675#1" to="169923277#7" modes="public"/>
    </person>
    <person id="ped140" depart="61.49" type="ped_pedestrian">
        <personTrip from="205860534#1" to="-191519140#4" modes="public"/>
    </person>
    <person id="ped141" depart="61.93" type="ped_pedestrian">
        <personTrip from="173550536" to="-206785643#5" modes="public"/>
    </person>
    <person id="ped142" depart="62.37" type="ped_pedestrian">
        <personTrip from="154157948#0" to="512706849#1" modes="public"/>
    </person>
    <person id="ped143" depart="62.81" type="ped_pedestrian">
        <personTrip from="380698883#3" to="-154166104#2" modes="public"/>
    </person>
    <person id="ped144" depart="63.25" type="ped_pedestrian">
        <personTrip from="130920938" to="-206785704" modes="public"/>
    </person>
    <person id="ped145" depart="63.68" type="ped_pedestrian">
        <personTrip from="-130877767#1" to="206785721#1" modes="public"/>
    </person>
    <person id="ped146" depart="64.12" type="ped_pedestrian">
        <personTrip from="173550564#0" to="-205860675#1" modes="public"/>
    </person>
    <person id="ped147" depart="64.56" type="ped_pedestrian">
        <personTrip from="205860662#4" to="154797803#1" modes="public"/>
    </person>
    <person id="ped148" depart="65.00" type="ped_pedestrian">
        <personTrip from="130921073#3" to="-130883282#4" modes="public"/>
    </person>
    <person id="ped149" depart="65.44" type="ped_pedestrian">
        <personTrip from="-154166035#5" to="461493182#1" modes="public"/>
    </person>
    <person id="ped150" depart="65.88" type="ped_pedestrian">
        <personTrip from="512705360" to="154797740" modes="public"/>
    </person>
    <person id="ped151" depart="66.32" type="ped_pedestrian">
        <personTrip from="368498637" to="155035452" modes="public"/>
    </person>
    <person id="ped152" depart="66.76" type="ped_pedestrian">
        <personTrip from="-154979276#2" to="-154797820#1" modes="public"/>
    </person>
    <person id="ped153" depart="67.20" type="ped_pedestrian">
        <personTrip from="-361645994#3" to="476998468#0" modes="public"/>
    </person>
    <person id="ped154" depart="67.64" type="ped_pedestrian">
        <personTrip from="206789213" to="441225645" modes="public"/>
    </person>
    <person id="ped155" depart="68.08" type="ped_pedestrian">
        <personTrip from="476998468#0" to="-205860357#0" modes="public"/>
    </person>
    <person id="ped156" depart="68.52" type="ped_pedestrian">
        <personTrip from="-205860474#6" to="-154247169#2" modes="public"/>
    </person>
    <person id="ped157" depart="68.95" type="ped_pedestrian">
        <personTrip from="206785760#2" to="461493183#3" modes="public"/>
    </person>
    <person id="ped158" depart="69.39" type="ped_pedestrian">
        <personTrip from="130883281#4" to="170773053#6" modes="public"/>
    </person>
    <person id="ped159" depart="69.83" type="ped_pedestrian">
        <personTrip from="-155035532" to="608948246" modes="public"/>
    </person>
    <person id="ped160" depart="70.27" type="ped_pedestrian">
        <personTrip from="443083020#3" to="917327303#0" modes="public"/>
    </person>
    <person id="ped161" depart="70.71" type="ped_pedestrian">
        <personTrip from="225052925#0" to="461492925#4" modes="public"/>
    </person>
    <person id="ped162" depart="71.15" type="ped_pedestrian">
        <personTrip from="-141650072#0" to="205860649#0" modes="public"/>
    </person>
    <person id="ped163" depart="71.59" type="ped_pedestrian">
        <personTrip from="-444492533#9" to="612403309#0" modes="public"/>
    </person>
    <person id="ped164" depart="72.03" type="ped_pedestrian">
        <personTrip from="225052903#3" to="441354965#3" modes="public"/>
    </person>
    <person id="ped165" depart="72.47" type="ped_pedestrian">
        <personTrip from="225052925#0" to="-206785663#3" modes="public"/>
    </person>
    <person id="ped166" depart="72.91" type="ped_pedestrian">
        <personTrip from="206785768" to="-154797679#1" modes="public"/>
    </person>
    <person id="ped167" depart="73.35" type="ped_pedestrian">
        <personTrip from="444492536" to="419930293#1" modes="public"/>
    </person>
    <person id="ped168" depart="73.79" type="ped_pedestrian">
        <personTrip from="-205860382#1" to="225052932" modes="public"/>
    </person>
    <person id="ped169" depart="74.23" type="ped_pedestrian">
        <personTrip from="153474797#3" to="-259262954#2" modes="public"/>
    </person>
    <person id="ped170" depart="74.66" type="ped_pedestrian">
        <personTrip from="206789207" to="-205860389#12" modes="public"/>
    </person>
    <person id="ped171" depart="75.10" type="ped_pedestrian">
        <personTrip from="-130921075#0" to="-173550552" modes="public"/>
    </person>
    <person id="ped172" depart="75.54" type="ped_pedestrian">
        <personTrip from="-444488631" to="443083020#2" modes="public"/>
    </person>
    <person id="ped173" depart="75.98" type="ped_pedestrian">
        <personTrip from="914925569" to="-206785745#1" modes="public"/>
    </person>
    <person id="ped174" depart="76.42" type="ped_pedestrian">
        <personTrip from="173550588#9" to="130877764#0" modes="public"/>
    </person>
    <person id="ped175" depart="76.86" type="ped_pedestrian">
        <personTrip from="918231528" to="154797688#0" modes="public"/>
    </person>
    <person id="ped176" depart="77.30" type="ped_pedestrian">
        <personTrip from="665479101" to="-154797732#0" modes="public"/>
    </person>
    <person id="ped177" depart="77.74" type="ped_pedestrian">
        <personTrip from="915447945#2" to="-169923332#3" modes="public"/>
    </person>
    <person id="ped178" depart="78.18" type="ped_pedestrian">
        <personTrip from="912661957#0" to="-206785661#1" modes="public"/>
    </person>
    <person id="ped179" depart="78.62" type="ped_pedestrian">
        <personTrip from="-154797679#3" to="141650107#3" modes="public"/>
    </person>
    <person id="ped180" depart="79.06" type="ped_pedestrian">
        <personTrip from="205860598" to="-380698881#4" modes="public"/>
    </person>
    <person id="ped181" depart="79.50" type="ped_pedestrian">
        <personTrip from="169923281#3" to="154166099#1" modes="public"/>
    </person>
    <person id="ped182" depart="79.93" type="ped_pedestrian">
        <personTrip from="-918231531#1" to="154979264#1" modes="public"/>
    </person>
    <person id="ped183" depart="80.37" type="ped_pedestrian">
        <personTrip from="-205860612#1" to="205860474#0" modes="public"/>
    </person>
    <person id="ped184" depart="80.81" type="ped_pedestrian">
        <personTrip from="-130877764#0" to="570276162#0" modes="public"/>
    </person>
    <person id="ped185" depart="81.25" type="ped_pedestrian">
        <personTrip from="154797715#2" to="205860534#8" modes="public"/>
    </person>
    <person id="ped186" depart="81.69" type="ped_pedestrian">
        <personTrip from="205860664#1" to="205860361#3" modes="public"/>
    </person>
    <person id="ped187" depart="82.13" type="ped_pedestrian">
        <personTrip from="-911098581" to="-154166023#0" modes="public"/>
    </person>
    <person id="ped188" depart="82.57" type="ped_pedestrian">
        <personTrip from="205860317#0" to="-444492533#0" modes="public"/>
    </person>
    <person id="ped189" depart="83.01" type="ped_pedestrian">
        <personTrip from="-380698881#5" to="380698887#0" modes="public"/>
    </person>
    <person id="ped190" depart="83.45" type="ped_pedestrian">
        <personTrip from="205860535#1" to="-225052930#4" modes="public"/>
    </person>
    <person id="ped191" depart="83.89" type="ped_pedestrian">
        <personTrip from="-368167200#1" to="130883283#3" modes="public"/>
    </person>
    <person id="ped192" depart="84.33" type="ped_pedestrian">
        <personTrip from="130882581#2" to="-225052923#0" modes="public"/>
    </person>
    <person id="ped193" depart="84.77" type="ped_pedestrian">
        <personTrip from="-154797820#0" to="130920002#1" modes="public"/>
    </person>
    <person id="ped194" depart="85.21" type="ped_pedestrian">
        <personTrip from="689528679#0" to="205860373#1" modes="public"/>
    </person>
    <person id="ped195" depart="85.64" type="ped_pedestrian">
        <personTrip from="476998476#0" to="169923328#1" modes="public"/>
    </person>
    <person id="ped196" depart="86.08" type="ped_pedestrian">
        <personTrip from="-225052932" to="154797774" modes="public"/>
    </person>
    <person id="ped197" depart="86.52" type="ped_pedestrian">
        <personTrip from="-129213020#1" to="-206789202#6" modes="public"/>
    </person>
    <person id="ped198" depart="86.96" type="ped_pedestrian">
        <personTrip from="130921075#3" to="154979276#0" modes="public"/>
    </person>
    <person id="ped199" depart="87.40" type="ped_pedestrian">
        <personTrip from="205860272#4" to="153474814#0" modes="public"/>