<?xml version="1.0" encoding="UTF-8"?>

<!-- generated on 2021-06-20 15:40:49 by Eclipse SUMO duarouter Version 1.9.2
<configuration xmlns:xsi="http://www.w3.org/2001/XMLSchema-instance" xsi:noNamespaceSchemaLocation="http://sumo.dlr.de/xsd/duarouterConfiguration.xsd">

    <input>
        <net-file value="/home/diego/PycharmProjects/hadoop-simulation-urban-modbility/2021-06-20-15-40-03/osm.net.xml"/>
        <route-files value="/home/diego/PycharmProjects/hadoop-simulation-urban-modbility/2021-06-20-15-40-03/osm.bicycle.trips.xml"/>
    </input>

    <output>
        <output-file value="/home/diego/PycharmProjects/hadoop-simulation-urban-modbility/2021-06-20-15-40-03/osm.bicycle.trips.xml.tmp"/>
        <write-trips value="true"/>
    </output>

    <time>
        <begin value="0"/>
        <end value="600"/>
    </time>

    <report>
        <no-warnings value="true"/>
        <ignore-errors value="true"/>
        <no-step-log value="true"/>
    </report>

</configuration>
-->

<routes xmlns:xsi="http://www.w3.org/2001/XMLSchema-instance" xsi:noNamespaceSchemaLocation="http://sumo.dlr.de/xsd/routes_file.xsd">
    <vType id="bike_bicycle" vClass="bicycle"/>
    <trip id="bike0" type="bike_bicycle" depart="0.00" departLane="best" from="169923248#3" to="-130921075#0"/>
    <trip id="bike1" type="bike_bicycle" depart="0.73" departLane="best" from="-205860672#4" to="-205860360#0"/>
    <trip id="bike2" type="bike_bicycle" depart="1.46" departLane="best" from="205860418#1" to="191519110#0"/>
    <trip id="bike3" type="bike_bicycle" depart="2.20" departLane="best" from="441354964#2" to="-154166059#1"/>
    <trip id="bike4" type="bike_bicycle" depart="2.93" departLane="best" departSpeed="max" from="-926212705#1" to="-141650112#4"/>
    <trip id="bike5" type="bike_bicycle" depart="3.66" departLane="best" from="-205860353#0" to="154154170#1"/>
    <trip id="bike6" type="bike_bicycle" depart="4.39" departLane="best" from="-141650072#1" to="-171309454#2"/>
    <trip id="bike7" type="bike_bicycle" depart="5.13" departLane="best" from="169923289#1" to="154168190#2"/>
    <trip id="bike8" type="bike_bicycle" depart="5.86" departLane="best" from="-205860359#1" to="154797861#1"/>
    <trip id="bike9" type="bike_bicycle" depart="6.59" departLane="best" from="206785760#0" to="-130882583#0"/>
    <trip id="bike10" type="bike_bicycle" depart="7.32" departLane="best" departSpeed="max" from="206785730" to="205860341#0"/>
    <trip id="bike11" type="bike_bicycle" depart="8.06" departLane="best" from="-385256873#1" to="-154979278#2"/>
    <trip id="bike12" type="bike_bicycle" depart="8.79" departLane="best" from="911135575#0" to="-385256873#2"/>
    <trip id="bike13" type="bike_bicycle" depart="9.52" departLane="best" departSpeed="max" from="-154166101#10" to="-154166099#0"/>
    <trip id="bike14" type="bike_bicycle" depart="10.25" departLane="best" from="245665882#0" to="154979241#3"/>
    <trip id="bike15" type="bike_bicycle" depart="10.99" departLane="best" from="206785744#2" to="205860418#3"/>
    <trip id="bike16" type="bike_bicycle" depart="11.72" departLane="best" from="154166035#2" to="915811868"/>
    <trip id="bike17" type="bike_bicycle" depart="12.45" departLane="best" from="-570276162#1" to="154247168#3"/>
    <trip id="bike18" type="bike_bicycle" depart="13.18" departLane="best" from="225052909#3" to="155035510"/>
    <trip id="bike19" type="bike_bicycle" depart="13.92" departLane="best" from="361645994#6" to="154797776#0"/>
    <trip id="bike20" type="bike_bicycle" depart="14.65" departLane="best" from="205860311#16" to="-153474792#2"/>
    <trip id="bike21" type="bike_bicycle" depart="15.38" departLane="best" from="-205860367#7" to="-206785704"/>
    <trip id="bike22" type="bike_bicycle" depart="16.11" departLane="best" departSpeed="max" from="-154166041" to="-205860381#2"/>
    <trip id="bike23" type="bike_bicycle" depart="16.85" departLane="best" from="-154168222#0" to="-206785663#0"/>
    <trip id="bike24" type="bike_bicycle" depart="17.58" departLane="best" from="166907800#5" to="-512705361"/>
    <trip id="bike25" type="bike_bicycle" depart="18.31" departLane="best" from="-512706848" to="-191519125#0"/>
    <trip id="bike26" type="bike_bicycle" depart="19.04" departLane="best" departSpeed="max" from="-205860592" to="62279855#2"/>
    <trip id="bike27" type="bike_bicycle" depart="19.78" departLane="best" from="169923282#4" to="154979267#1"/>
    <trip id="bike28" type="bike_bicycle" depart="20.51" departLane="best" departSpeed="max" from="-169923266#2" to="205860418#1"/>
    <trip id="bike29" type="bike_bicycle" depart="21.24" departLane="best" from="-155035534#1" to="-574628082#0"/>
    <trip id="bike30" type="bike_bicycle" depart="21.97" departLane="best" from="924756876" to="169923281#3"/>
    <trip id="bike31" type="bike_bicycle" depart="22.70" departLane="best" from="154166106#2" to="191519145"/>
    <trip id="bike32" type="bike_bicycle" depart="23.44" departLane="best" from="235423797#1" to="205860669#4"/>
    <trip id="bike33" type="bike_bicycle" depart="24.17" departLane="best" from="-205860371#0" to="-141650129#0"/>
    <trip id="bike34" type="bike_bicycle" depart="24.90" departLane="best" from="-225052927#1" to="-205860643"/>
    <trip id="bike35" type="bike_bicycle" depart="25.63" departLane="best" from="-191519133#7" to="888777002#4"/>
    <trip id="bike36" type="bike_bicycle" depart="26.37" departLane="best" from="380698881#5" to="-235767098#0"/>
    <trip id="bike37" type="bike_bicycle" depart="27.10" departLane="best" from="169923326#1" to="-912661956"/>
    <trip id="bike38" type="bike_bicycle" depart="27.83" departLane="best" departSpeed="max" from="476998472#0" to="141650095#1"/>
    <trip id="bike39" type="bike_bicycle" depart="28.56" departLane="best" departSpeed="max" from="-205860531" to="-205860411#0"/>
    <trip id="bike40" type="bike_bicycle" depart="29.30" departLane="best" from="154168227#2" to="-205860485#0"/>
    <trip id="bike41" type="bike_bicycle" depart="30.03" departLane="best" from="154797730#9" to="444492533#10"/>
    <trip id="bike42" type="bike_bicycle" depart="30.76" departLane="best" from="-912661955#0" to="-205860338"/>
    <trip id="bike43" type="bike_bicycle" depart="31.49" departLane="best" departSpeed="max" from="926523564" to="154157920#2"/>
    <trip id="bike44" type="bike_bicycle" depart="32.23" departLane="best" from="-154166098#0" to="-153474797#10"/>
    <trip id="bike45" type="bike_bicycle" depart="32.96" departLane="best" departSpeed="max" from="-154300832#3" to="165885111"/>
    <trip id="bike46" type="bike_bicycle" depart="33.69" departLane="best" from="206785664#1" to="129213040#1"/>
    <trip id="bike47" type="bike_bicycle" depart="34.42" departLane="best" from="-154157918#1" to="-62277558#1"/>
    <trip id="bike48" type="bike_bicycle" depart="35.16" departLane="best" from="926483182#2" to="154166066#0"/>
    <trip id="bike49" type="bike_bicycle" depart="35.89" departLane="best" from="915447945#2" to="368167200#4"/>
    <trip id="bike50" type="bike_bicycle" depart="36.62" departLane="best" from="-130883284#0" to="205860389#8"/>
    <trip id="bike51" type="bike_bicycle" depart="37.35" departLane="best" from="173550587#0" to="154166098#0"/>
    <trip id="bike52" type="bike_bicycle" depart="38.09" departLane="best" departSpeed="max" from="-205860592" to="169923282#3"/>
    <trip id="bike53" type="bike_bicycle" depart="38.82" departLane="best" from="-154797671#2" to="130883286#0"/>
    <trip id="bike54" type="bike_bicycle" depart="39.55" departLane="best" from="130920002#2" to="911135577#1"/>
    <trip id="bike55" type="bike_bicycle" depart="40.28" departLane="best" from="380698881#3" to="-205860491"/>
    <trip id="bike56" type="bike_bicycle" depart="41.02" departLane="best" from="153474811#2" to="-169923289#1"/>
    <trip id="bike57" type="bike_bicycle" depart="41.75" departLane="best" from="476708485#1" to="380698880"/>
    <trip id="bike58" type="bike_bicycle" depart="42.48" departLane="best" from="-206785761#3" to="169923277#9"/>
    <trip id="bike59" type="bike_bicycle" depart="43.21" departLane="best" from="154979231" to="-154979269#1"/>
    <trip id="bike60" type="bike_bicycle" depart="43.94" departLane="best" from="205860534#5" to="154166101#7"/>
    <trip id="bike61" type="bike_bicycle" depart="44.68" departLane="best" from="205860662#3" to="154166072#1"/>
    <trip id="bike62" type="bike_bicycle" depart="45.41" departLane="best" from="-129213020#2" to="-361645994#5"/>
    <trip id="bike63" type="bike_bicycle" depart="46.14" departLane="best" from="-130920001#1" to="570276159#1"/>
    <trip id="bike64" type="bike_bicycle" depart="46.87" departLane="best" from="380698884#2" to="225052924"/>
    <trip id="bike65" type="bike_bicycle" depart="47.61" departLane="best" from="-222976358#0" to="-153481097"/>
    <trip id="bike66" type="bike_bicycle" depart="48.34" departLane="best" departSpeed="max" from="380698884#0" to="911098578#0"/>
    <trip id="bike67" type="bike_bicycle" depart="49.07" departLane="best" from="-154166075#1" to="153474797#3"/>
    <trip id="bike68" type="bike_bicycle" depart="49.80" departLane="best" from="-154157946#0" to="205860571"/>
    <trip id="bike69" type="bike_bicycle" depart="50.54" departLane="best" from="205860551" to="-154797776#0"/>
    <trip id="bike70" type="bike_bicycle" depart="51.27" departLane="best" from="141650152" to="154168232#0"/>
    <trip id="bike71" type="bike_bicycle" depart="52.00" departLane="best" from="-205860558" to="380698883#0"/>
    <trip id="bike72" type="bike_bicycle" depart="52.73" departLane="best" from="-926483183#0" to="-191519126#0"/>
    <trip id="bike73" type="bike_bicycle" depart="53.47" departLane="best" from="154166040#5" to="205860424"/>
    <trip id="bike74" type="bike_bicycle" depart="54.20" departLane="best" from="-173550551" to="-225052928#1"/>
    <trip id="bike75" type="bike_bicycle" depart="54.93" departLane="best" departSpeed="max" from="926483178" to="169923332#2"/>
    <trip id="bike76" type="bike_bicycle" depart="55.66" departLane="best" from="130883281#2" to="154166023#6"/>
    <trip id="bike77" type="bike_bicycle" depart="56.40" departLane="best" from="-154797732#6" to="-205860361#3"/>
    <trip id="bike78" type="bike_bicycle" depart="57.13" departLane="best" from="-380698883#3" to="154797859"/>
    <trip id="bike79" type="bike_bicycle" depart="57.86" departLane="best" from="-205860372#2" to="-205860353#0"/>
    <trip id="bike80" type="bike_bicycle" depart="58.59" departLane="best" from="-154166022#1" to="169923246#3"/>
    <trip id="bike81" type="bike_bicycle" depart="59.33" departLane="best" from="-205860371#0" to="460223841#0"/>
    <trip id="bike82" type="bike_bicycle" depart="60.06" departLane="best" from="361337423#6" to="-154157937#1"/>
    <trip id="bike83" type="bike_bicycle" depart="60.79" departLane="best" from="-205860389#1" to="173550556"/>
    <trip id="bike85" type="bike_bicycle" depart="62.26" departLane="best" from="570276161" to="154797730#7"/>
    <trip id="bike86" type="bike_bicycle" depart="62.99" departLane="best" from="141650125" to="206785662#0"/>
    <trip id="bike87" type="bike_bicycle" depart="63.72" departLane="best" from="206785744#4" to="-170773053#4"/>
    <trip id="bike88" type="bike_bicycle" depart="64.45" departLane="best" from="-154166106#1" to="130883282#3"/>
    <trip id="bike89" type="bike_bicycle" depart="65.18" departLane="best" departSpeed="max" from="-926483183#1" to="152586885#2"/>
    <trip id="bike90" type="bike_bicycle" depart="65.92" departLane="best" from="205860389#5" to="173550588#6"/>
    <trip id="bike91" type="bike_bicycle" depart="66.65" departLane="best" from="918231532#2" to="-154166101#8"/>
    <trip id="bike92" type="bike_bicycle" depart="67.38" departLane="best" departSpeed="max" from="-914901936#1" to="-419758655#0"/>
    <trip id="bike93" type="bike_bicycle" depart="68.11" departLane="best" from="361645994#6" to="-205860425#3"/>
    <trip id="bike94" type="bike_bicycle" depart="68.85" departLane="best" from="-171309448#14" to="130920949#0"/>
    <trip id="bike95" type="bike_bicycle" depart="69.58" departLane="best" departSpeed="max" from="-926212705#1" to="-206785663#2"/>
    <trip id="bike96" type="bike_bicycle" depart="70.31" departLane="best" from="-205860425#0" to="570276149#3"/>
    <trip id="bike97" type="bike_bicycle" depart="71.04" departLane="best" from="130883286#0" to="368167200#6"/>
    <trip id="bike98" type="bike_bicycle" depart="71.78" departLane="best" from="154166097#0" to="-153474808#6"/>
    <trip id="bike99" type="bike_bicycle" depart="72.51" departLane="best" from="926652108" to="225052930#0"/>
    <trip id="bike100" type="bike_bicycle" depart="73.24" departLane="best" from="915429558#0" to="570276153#1"/>
    <trip id="bike101" type="bike_bicycle" depart="73.97" departLane="best" from="245665886" to="-159803128#0"/>
    <trip id="bike102" type="bike_bicycle" depart="74.71" departLane="best" from="152907276#1" to="-191519133#5"/>
    <trip id="bike103" type="bike_bicycle" depart="75.44" departLane="best" from="-914645160#2" to="-153481100#2"/>
    <trip id="bike104" type="bike_bicycle" depart="76.17" departLane="best" departSpeed="max" from="-570276162#2" to="924741138#1"/>
    <trip id="bike105" type="bike_bicycle" depart="76.90" departLane="best" from="-205860564" to="206785659#2"/>
    <trip id="bike106" type="bike_bicycle" depart="77.64" departLane="best" from="130920003#2" to="130877764#0"/>
    <trip id="bike107" type="bike_bicycle" depart="78.37" departLane="best" from="911135575#0" to="926644046"/>
    <trip id="bike108" type="bike_bicycle" depart="79.10" departLane="best" from="154166105#5" to="205860389#10"/>
    <trip id="bike109" type="bike_bicycle" depart="79.83" departLane="best" from="-154979274#0" to="-206785772"/>
    <trip id="bike110" type="bike_bicycle" depart="80.57" departLane="best" from="915429557#2" to="154797786#0"/>
    <trip id="bike111" type="bike_bicycle" depart="81.30" departLane="best" from="154166059#1" to="205860476#2"/>
    <trip id="bike112" type="bike_bicycle" depart="82.03" departLane="best" from="-153481100#2" to="154797814#0"/>
    <trip id="bike113" type="bike_bicycle" depart="82.76" departLane="best" departSpeed="max" from="153474818#0" to="361337423#1"/>
    <trip id="bike114" type="bike_bicycle" depart="83.50" departLane="best" from="-155035447" to="914645160#2"/>
    <trip id="bike115" type="bike_bicycle" depart="84.23" departLane="best" departSpeed="max" from="-154166041" to="-169923328#3"/>
    <trip id="bike116" type="bike_bicycle" depart="84.96" departLane="best" from="154797815#0" to="191519107#1"/>
    <trip id="bike117" type="bike_bicycle" depart="85.69" departLane="best" from="-205860386#0" to="-154797696#2"/>
    <trip id="bike118" type="bike_bicycle" depart="86.42" departLane="best" from="439478173#2" to="-205860410#0"/>
    <trip id="bike119" type="bike_bicycle" depart="87.16" departLane="best" from="154797813#1" to="155035525#1"/>
    <trip id="bike120" type="bike_bicycle" depart="87.89" departLane="best" from="-925008260" to="154797807#1"/>
    <trip id="bike121" type="bike_bicycle" depart="88.62" departLane="best" departSpeed="max" from="154157932#0" to="585460308#1"/>
    <trip id="bike122" type="bike_bicycle" depart="89.35" departLane="best" from="-173550587#0" to="205860386#2"/>
    <trip id="bike123" type="bike_bicycle" depart="90.09" departLane="best" from="-205860389#12" to="-912661956"/>
    <trip id="bike124" type="bike_bicycle" depart="90.82" departLane="best" departSpeed="max" from="171309464#0" to="-206789207"/>
    <trip id="bike125" type="bike_bicycle" depart="91.55" departLane="best" from="-225052928#1" to="205860524#0"/>
    <trip id="bike126" type="bike_bicycle" depart="92.28" departLane="best" from="-154166023#5" to="141650083"/>
    <trip id="bike127" type="bike_bicycle" depart="93.02" departLane="best" from="926644051#1" to="926644047"/>
    <trip id="bike128" type="bike_bicycle" depart="93.75" departLane="best" from="-154166025#0" to="-191519133#2"/>
    <trip id="bike129" type="bike_bicycle" depart="94.48" departLane="best" from="-205860564" to="574628081#7"/>
    <trip id="bike130" type="bike_bicycle" depart="95.21" departLane="best" from="380698888#1" to="383427038#1"/>
    <trip id="bike131" type="bike_bicycle" depart="95.95" departLane="best" from="-476998476#1" to="-155035496#0"/>
    <trip id="bike132" type="bike_bicycle" depart="96.68" departLane="best" from="225052923#0" to="205860361#7"/>
    <trip id="bike133" type="bike_bicycle" depart="97.41" departLane="best" from="154979241#4" to="925006919"/>
    <trip id="bike134" type="bike_bicycle" depart="98.14" departLane="best" from="169923318#1" to="-130883281#0"/>
    <trip id="bike135" type="bike_bicycle" depart="98.88" departLane="best" from="206785776#0" to="-206789202#5"/>
    <trip id="bike136" type="bike_bicycle" depart="99.61" departLane="best" from="171309448#14" to="815116747"/>
    <trip id="bike137" type="bike_bicycle" depart="100.34" departLane="best" from="-154797830" to="-154797679#2"/>
    <trip id="bike138" type="bike_bicycle" depart="101.07" departLane="best" departSpeed="max" from="-154247169#3" to="154247169#3"/>
    <trip id="bike139" type="bike_bicycle" depart="101.81" departLane="best" from="-205860662#4" to="154979246#2"/>
    <trip id="bike140" type="bike_bicycle" depart="102.54" departLane="best" from="205860368#1" to="-173550551"/>
    <trip id="bike141" type="bike_bicycle" depart="103.27" departLane="best" from="165885103#1" to="-205860558"/>
    <trip id="bike142" type="bike_bicycle" depart="104.00" departLane="best" from="152907325#2" to="460223841#0"/>
    <trip id="bike143" type="bike_bicycle" depart="104.74" departLane="best" departSpeed="max" from="235767102#0" to="-154166083#0"/>
    <trip id="bike144" type="bike_bicycle" depart="105.47" departLane="best" departSpeed="max" from="-926483183#1" to="-206785659#0"/>
    <trip id="bike145" type="bike_bicycle" depart="106.20" departLane="best" from="-130877767#0" to="205860654#6"/>
    <trip id="bike146" type="bike_bicycle" depart="106.93" departLane="best" from="169923246#1" to="-205860475#2"/>
    <trip id="bike147" type="bike_bicycle" depart="107.66" departLane="best" from="205860439#1" to="154247168#1"/>
    <trip id="bike148" type="bike_bicycle" depart="108.40" departLane="best" from="-926644051#3" to="-130883282#2"/>
    <trip id="bike149" type="bike_bicycle" depart="109.13" departLane="best" from="-154166032" to="385256882#1"/>
    <trip id="bike150" type="bike_bicycle" depart="109.86" departLane="best" from="446749128#0" to="154168193#1"/>
    <trip id="bike151" type="bike_bicycle" depart="110.59" departLane="best" from="225052923#4" to="154797805#1"/>
    <trip id="bike152" type="bike_bicycle" depart="111.33" departLane="best" from="-154979245" to="-154797766"/>
    <trip id="bike153" type="bike_bicycle" depart="112.06" departLane="best" from="-222977822#0" to="444492533#5"/>
    <trip id="bike154" type="bike_bicycle" depart="112.79" departLane="best" from="206785672#5" to="368167200#4"/>
    <trip id="bike155" type="bike_bicycle" depart="113.52" departLane="best" from="444491948#3" to="-191519125#1"/>
    <trip id="bike157" type="bike_bicycle" depart="114.99" departLane="best" from="205860668#2" to="385256884#1"/>
    <trip id="bike158" type="bike_bicycle" depart="115.72" departLane="best" from="-915447945#2" to="155035534#1"/>
    <trip id="bike159" type="bike_bicycle" depart="116.45" departLane="best" from="-154979272#0" to="570276162#1"/>
    <trip id="bike160" type="bike_bicycle" depart="117.19" departLane="best" from="361654139#1" to="917800954"/>
    <trip id="bike161" type="bike_bicycle" depart="117.92" departLane="best" from="206785760#6" to="385256878"/>
    <trip id="bike162" type="bike_bicycle" depart="118.65" departLane="best" from="-130920004#4" to="205860446#1"/>
    <trip id="bike163" type="bike_bicycle" depart="119.38" departLane="best" from="-368167200#1" to="570276163#0"/>
    <trip id="bike164" type="bike_bicycle" depart="120.12" departLane="best" from="206785705#1" to="373344070#1"/>
    <trip id="bike165" type="bike_bicycle" depart="120.85" departLane="best" from="206785760#6" to="-205860612#4"/>
    <trip id="bike166" type="bike_bicycle" depart="121.58" departLane="best" from="206785631#1" to="-154247168#0"/>
    <trip id="bike167" type="bike_bicycle" depart="122.31" departLane="best" from="380091877#1" to="361654139#0"/>
    <trip id="bike168" type="bike_bicycle" depart="123.05" departLane="best" from="-205860360#4" to="206789202#5"/>
    <trip id="bike169" type="bike_bicycle" depart="123.78" departLane="best" from="130921071#2" to="-225052909#3"/>
    <trip id="bike170" type="bike_bicycle" depart="124.51" departLane="best" from="206785672#1" to="-205860367#4"/>
    <trip id="bike171" type="bike_bicycle" depart="125.24" departLane="best" from="-130920004#0" to="-171309448#3"/>
    <trip id="bike172" type="bike_bicycle" depart="125.98" departLane="best" from="-361650450#0" to="373344070#3"/>
    <trip id="bike173" type="bike_bicycle" depart="126.71" departLane="best" departSpeed="max" from="914925569" to="-206785664#0"/>
    <trip id="bike174" type="bike_bicycle" depart="127.44" departLane="best" from="169923256#3" to="-914925569"/>
    <trip id="bike175" type="bike_bicycle" depart="128.17" departLane="best" from="917678729#3" to="154166097#2"/>
    <trip id="bike176" type="bike_bicycle" depart="128.90" departLane="best" from="574628082#2" to="-154797679#2"/>
    <trip id="bike177" type="bike_bicycle" depart="129.64" departLane="best" from="915429560#1" to="-169923289#1"/>
    <trip id="bike178" type="bike_bicycle" depart="130.37" departLane="best" from="912661957#0" to="-205860599"/>
    <trip id="bike179" type="bike_bicycle" depart="131.10" departLane="best" from="-154300830#1" to="130883285#4"/>
    <trip id="bike180" type="bike_bicycle" depart="131.83" departLane="best" from="205860389#3" to="-225052930#6"/>
    <trip id="bike181" type="bike_bicycle" depart="132.57" departLane="best" departSpeed="max" from="154913989" to="154157937#0"/>
    <trip id="bike182" type="bike_bicycle" depart="133.30" departLane="best" from="-62279855#2" to="154797766"/>
    <trip id="bike183" type="bike_bicycle" depart="134.03" departLane="best" from="-205860454#6" to="205860368#2"/>
    <trip id="bike184" type="bike_bicycle" depart="134.76" departLane="best" from="-129213020#6" to="570276152#1"/>
    <trip id="bike185" type="bike_bicycle" depart="135.50" departLane="best" from="154166040#2" to="205860389#3"/>
    <trip id="bike186" type="bike_bicycle" depart="136.23" departLane="best" from="205860439#4" to="173550577"/>
    <trip id="bike187" type="bike_bicycle" depart="136.96" departLane="best" departSpeed="max" from="-476708485#3" to="-154157935#0"/>
    <trip id="bike188" type="bike_bicycle" depart="137.69" departLane="best" from="171309448#3" to="-372642301#0"/>
    <trip id="bike189" type="bike_bicycle" depart="138.43" departLane="best" from="-225052923#4" to="259262958#2"/>
    <trip id="bike190" type="bike_bicycle" depart="139.16" departLane="best" from="205860372#3" to="-206789208"/>
    <trip id="bike191" type="bike_bicycle" depart="139.89" departLane="best" from="-225052909#1" to="-917678727"/>
    <trip id="bike192" type="bike_bicycle" depart="140.62" departLane="best" departSpeed="max" from="-914901936#1" to="-206785765#3"/>
    <trip id="bike193" type="bike_bicycle" depart="141.36" departLane="best" from="-154797790" to="129213020#1"/>
    <trip id="bike194" type="bike_bicycle" depart="142.09" departLane="best" from="585460308#4" to="191519111#0"/>
    <trip id="bike195" type="bike_bicycle" depart="142.82" departLane="best" from="444492537" to="155035488#0"/>
    <trip id="bike197" type="bike_bicycle" depart="144.29" departLane="best" from="-129213020#1" to="-206785681#5"/>
    <trip id="bike198" type="bike_bicycle" depart="145.02" departLane="best" from="129213020#5" to="154797798#0"/>
    <trip id="bike199" type="bike_bicycle" depart="145.75" departLane="best" from="169923322#2" to="141650129#4"/>
    <trip id="bike200" type="bike_bicycle" depart="146.48" departLane="best" from="130883285#1" to="-191519133#5"/>
    <trip id="bike201" type="bike_bicycle" depart="147.22" departLane="best" from="141650129#1" to="444492538"/>
    <trip id="bike202" type="bike_bicycle" depart="147.95" departLane="best" from="206785672#5" to="-169923246#3"/>
    <trip id="bike203" type="bike_bicycle" depart="148.68" departLane="best" from="-154166074#0" to="154157951"/>
    <trip id="bike204" type="bike_bicycle" depart="149.41" departLane="best" from="161884210#1" to="-380698887#4"/>
    <trip id="bike205" type="bike_bicycle" depart="150.14" departLane="best" from="206785776#4" to="205860519"/>
    <trip id="bike206" type="bike_bicycle" depart="150.88" departLane="best" from="173498516#1" to="-205860361#3"/>
    <trip id="bike207" type="bike_bicycle" depart="151.61" departLane="best" departSpeed="max" from="-173498516#3" to="-130920004#3"/>
    <trip id="bike208" type="bike_bicycle" depart="152.34" departLane="best" from="-205860401#0" to="152907262#1"/>
    <trip id="bike209" type="bike_bicycle" depart="153.07" departLane="best" from="247366415#1" to="-154157943"/>
    <trip id="bike210" type="bike_bicycle" depart="153.81" departLane="best" from="-918231532#0" to="169923245#0"/>
    <trip id="bike211" type="bike_bicycle" depart="154.54" departLane="best" from="-171309451#4" to="205860311#4"/>
    <trip id="bike212" type="bike_bicycle" depart="155.27" departLane="best" from="153474792#1" to="-205860400#2"/>
    <trip id="bike213" type="bike_bicycle" depart="156.00" departLane="best" departSpeed="max" from="169923328#0" to="-130882582#1"/>
    <trip id="bike214" type="bike_bicycle" depart="156.74" departLane="best" departSpeed="max" from="205860473#0" to="205860654#2"/>
    <trip id="bike215" type="bike_bicycle" depart="157.47" departLane="best" from="-154247169#1" to="130877768"/>
    <trip id="bike216" type="bike_bicycle" depart="158.20" departLane="best" from="-169923281#0" to="912661955#1"/>
    <trip id="bike217" type="bike_bicycle" depart="158.93" departLane="best" departSpeed="max" from="154157905" to="-153474808#5"/>
    <trip id="bike218" type="bike_bicycle" depart="159.67" departLane="best" from="-205860418#2" to="259262958#3"/>
    <trip id="bike219" type="bike_bicycle" depart="160.40" departLane="best" from="130920004#4" to="206785743"/>
    <trip id="bike220" type="bike_bicycle" depart="161.13" departLane="best" from="171309451#2" to="925008261"/>
    <trip id="bike221" type="bike_bicycle" depart="161.86" departLane="best" from="154797820#0" to="911109556"/>
    <trip id="bike222" type="bike_bicycle" depart="162.60" departLane="best" from="441225646#1" to="154979276#1"/>
    <trip id="bike223" type="bike_bicycle" depart="163.33" departLane="best" from="205860372#1" to="154154169"/>
    <trip id="bike225" type="bike_bicycle" depart="164.79" departLane="best" from="444488635#2" to="205860463#2"/>
    <trip id="bike226" type="bike_bicycle" depart="165.53" departLane="best" from="141650129#7" to="-205860473#1"/>
    <trip id="bike227" type="bike_bicycle" depart="166.26" departLane="best" departSpeed="max" from="-205860410#2" to="169923277#3"/>
    <trip id="bike228" type="bike_bicycle" depart="166.99" departLane="best" from="205860551" to="154166032"/>
    <trip id="bike229" type="bike_bicycle" depart="167.72" departLane="best" from="155035525#0" to="-205860675#5"/>
    <trip id="bike230" type="bike_bicycle" depart="168.46" departLane="best" from="-154166035#8" to="-206785678#0"/>
    <trip id="bike231" type="bike_bicycle" depart="169.19" departLane="best" from="-205860662#1" to="-259262958#3"/>
    <trip id="bike232" type="bike_bicycle" depart="169.92" departLane="best" from="154166042" to="-154797882#3"/>
    <trip id="bike233" type="bike_bicycle" depart="170.65" departLane="best" from="-205860374#0" to="205860311#16"/>
    <trip id="bike234" type="bike_bicycle" depart="171.38" departLane="best" from="205860311#23" to="-154157903"/>
    <trip id="bike235" type="bike_bicycle" depart="172.12" departLane="best" departSpeed="max" from="-915453147" to="154166106#0"/>
    <trip id="bike236" type="bike_bicycle" depart="172.85" departLane="best" from="-918231532#6" to="-173550588#0"/>
    <trip id="bike237" type="bike_bicycle" depart="173.58" departLane="best" from="-925008262#1" to="460222372"/>
    <trip id="bike238" type="bike_bicycle" depart="174.31" departLane="best" from="154797730#7" to="205860311#22"/>
    <trip id="bike239" type="bike_bicycle" depart="175.05" departLane="best" from="350999329" to="205860612#1"/>
    <trip id="bike240" type="bike_bicycle" depart="175.78" departLane="best" from="-574628081#0" to="-130882582#3"/>
    <trip id="bike241" type="bike_bicycle" depart="176.51" departLane="best" from="-443083020#2" to="205860530#2"/>
    <trip id="bike242" type="bike_bicycle" depart="177.24" departLane="best" from="259262958#0" to="911135576#2"/>
    <trip id="bike243" type="bike_bicycle" depart="177.98" departLane="best" from="-925006919" to="205860476#1"/>
    <trip id="bike244" type="bike_bicycle" depart="178.71" departLane="best" from="154166079#1" to="154979241#0"/>
    <trip id="bike245" type="bike_bicycle" depart="179.44" departLane="best" from="-205860359#1" to="-205860338"/>
    <trip id="bike246" type="bike_bicycle" depart="180.17" departLane="best" from="130882582#4" to="-141650112#1"/>
    <trip id="bike247" type="bike_bicycle" depart="180.91" departLane="best" from="-380698881#1" to="191519125#2"/>
    <trip id="bike248" type="bike_bicycle" depart="181.64" departLane="best" from="-915429557#1" to="-156352423#0"/>
    <trip id="bike249" type="bike_bicycle" depart="182.37" departLane="best" from="141650095#1" to="-154797766"/>
    <trip id="bike250" type="bike_bicycle" depart="183.10" departLane="best" from="155035451" to="-141650072#3"/>