<?xml version="1.0" encoding="UTF-8"?>

<!-- generated on 2021-05-26 08:21:44 by Eclipse SUMO polyconvert Version 1.9.2
<configuration xmlns:xsi="http://www.w3.org/2001/XMLSchema-instance" xsi:noNamespaceSchemaLocation="http://sumo.dlr.de/xsd/polyconvertConfiguration.xsd">

    <input>
        <net-file value="osm.net.xml"/>
        <osm-files value="osm_bbox.osm.xml"/>
        <osm.keep-full-type value="true"/>
        <type-file value="/usr/share/sumo/data/typemap/osmPolyconvert.typ.xml"/>
    </input>

    <output>
        <output-file value="osm.poly.xml"/>
    </output>

    <processing>
        <poi-layer-offset value="5"/>
    </processing>

    <report>
        <verbose value="true"/>
    </report>

</configuration>
-->

<additional xmlns:xsi="http://www.w3.org/2001/XMLSchema-instance" xsi:noNamespaceSchemaLocation="http://sumo.dlr.de/xsd/additional_file.xsd">
    <location netOffset="-747817.51,2268642.18" convBoundary="0.00,-109.86,2802.11,3221.39" origBoundary="-54.624190,-20.501172,-54.597016,-20.471126" projParameter="+proj=utm +zone=21 +ellps=WGS84 +datum=WGS84 +units=m +no_defs"/>

    <poly id="154979184" type="building.commercial" color="255,230,230" fill="1" layer="-1.00" shape="1254.262060,526.118882 1186.866795,459.891936 1277.965085,368.301030 1370.857887,459.608480 1342.264585,488.370445 1331.390219,477.685591 1309.008885,500.176175 1313.159617,504.258087 1305.219341,512.249307 1311.170107,518.099290 1274.238580,539.052268 1257.635837,522.735652 1254.262060,526.118882"/>
    <poly id="154979184#1" type="shop.supermarket" color="237,199,255" fill="1" layer="-1.00" shape="1254.262060,526.118882 1186.866795,459.891936 1277.965085,368.301030 1370.857887,459.608480 1342.264585,488.370445 1331.390219,477.685591 1309.008885,500.176175 1313.159617,504.258087 1305.219341,512.249307 1311.170107,518.099290 1274.238580,539.052268 1257.635837,522.735652 1254.262060,526.118882"/>
    <poly id="169923292" type="waterway.stream" color="181,209,209" fill="0" layer="-4.00" shape="1513.221109,641.605310 1494.804460,624.739432 1491.532054,616.491102 1493.614572,606.879655 1489.434789,599.386700 1476.636197,586.304331 1472.071521,571.041428 1464.039731,554.200976 1456.862076,545.101456 1447.364822,529.390046 1430.411091,511.206813 1422.008825,494.006244 1405.374720,471.265959"/>
    <poly id="169923293" type="waterway.stream" color="181,209,209" fill="0" layer="-4.00" shape="1835.649719,901.868689 1513.221109,641.605310"/>
    <poly id="169923341" type="leisure.pitch" color="207,245,201" fill="1" layer="-2.00" shape="1925.658972,966.189697 1929.084536,947.808207 1965.555318,954.529289 1962.129790,972.910790 1925.658972,966.189697"/>
    <poly id="169923341#1" type="sport.multi" color="79,230,125" fill="1" layer="-2.00" shape="1925.658972,966.189697 1929.084536,947.808207 1965.555318,954.529289 1962.129790,972.910790 1925.658972,966.189697"/>
    <poly id="191519141" type="amenity.bus_station" color="237,199,199" fill="1" layer="-1.00" shape="999.645755,1387.237861 998.086771,1386.972610 997.327816,1391.469564 993.613608,1390.848068 1023.320052,1215.686787 1028.582599,1216.562598 999.645755,1387.237861"/>
    <poly id="191519141#1" type="building.yes" color="255,230,230" fill="1" layer="-1.00" shape="999.645755,1387.237861 998.086771,1386.972610 997.327816,1391.469564 993.613608,1390.848068 1023.320052,1215.686787 1028.582599,1216.562598 999.645755,1387.237861"/>
    <poly id="205860323" type="waterway.stream" color="181,209,209" fill="0" layer="-4.00" shape="1405.374720,471.265959 1359.237324,415.705633 1333.002999,390.901360 1319.233725,379.937580 1270.262435,333.246276 1146.093546,258.411317"/>
    <poly id="205860495" type="building.yes" color="255,230,230" fill="1" layer="-1.00" shape="1000.892745,473.748625 999.424054,483.960223 1038.516493,489.504023 1039.974889,479.303645 1025.176652,477.204602 1025.830376,472.653791 1047.478557,475.716214 1048.909036,465.748844 1031.130262,463.228090 1002.987575,459.241373 1001.556748,469.186589 1020.402237,471.857956 1019.748673,476.419840 1000.892745,473.748625"/>
    <poly id="205860684" type="landuse.grass" color="194,194,130" fill="1" layer="-3.00" shape="1712.830469,800.611389 1733.914622,825.003188 1724.063794,833.664980 1718.444923,829.117265 1697.492047,807.991044 1698.014439,804.461132 1703.952469,799.434239 1706.467574,798.710719 1712.830469,800.611389"/>
    <poly id="205860684#1" type="leisure.park" color="207,245,201" fill="1" layer="-2.00" shape="1712.830469,800.611389 1733.914622,825.003188 1724.063794,833.664980 1718.444923,829.117265 1697.492047,807.991044 1698.014439,804.461132 1703.952469,799.434239 1706.467574,798.710719 1712.830469,800.611389"/>
    <poly id="205860689" type="landuse.grass" color="194,194,130" fill="1" layer="-3.00" shape="1691.537367,828.292430 1694.899090,811.241103 1719.575197,835.037643 1726.159418,841.365603 1744.358158,855.432159 1758.923904,864.434584 1776.437361,872.319468 1803.907730,879.504835 1814.491211,907.362023 1783.168392,906.513311 1754.831608,883.623271 1705.536456,842.797039 1691.537367,828.292430"/>
    <poly id="205860689#1" type="leisure.common" color="207,245,201" fill="1" layer="-2.00" shape="1691.537367,828.292430 1694.899090,811.241103 1719.575197,835.037643 1726.159418,841.365603 1744.358158,855.432159 1758.923904,864.434584 1776.437361,872.319468 1803.907730,879.504835 1814.491211,907.362023 1783.168392,906.513311 1754.831608,883.623271 1705.536456,842.797039 1691.537367,828.292430"/>
    <poly id="205860700" type="landuse.grass" color="194,194,130" fill="1" layer="-3.00" shape="2205.858195,1040.318086 2210.438077,1044.459989 2166.190663,1033.411719 2178.153295,1017.873527 2205.858195,1040.318086"/>
    <poly id="205860700#1" type="leisure.common" color="207,245,201" fill="1" layer="-2.00" shape="2205.858195,1040.318086 2210.438077,1044.459989 2166.190663,1033.411719 2178.153295,1017.873527 2205.858195,1040.318086"/>
    <poly id="205860703" type="landuse.residential" color="235,235,227" fill="1" layer="-3.00" shape="2177.277297,418.987371 2108.407862,399.128780 2157.045500,219.211472 2163.606856,223.268938 2225.213836,261.764482 2177.277297,418.987371"/>
    <poly id="205860725" type="leisure.park" color="207,245,201" fill="1" layer="-2.00" shape="1942.721335,989.587914 1924.040191,986.793235 1902.440482,979.976238 1884.396951,972.254290 1859.519037,956.092489 1818.048870,929.385099 1786.897969,909.615500 1817.007532,909.573699 1807.189688,879.833409 1823.945934,885.181772 1857.677163,885.862242 1951.321771,884.823792 1989.223448,887.348077 2038.212388,893.664162 2080.344459,903.547450 2103.380740,910.110572 2122.733843,916.029815 2130.895062,919.565447 2124.906934,928.292735 2114.802711,941.023502 2109.854239,948.051946 2099.474807,964.796373 2092.444811,977.925144 2002.506680,986.940385 1964.974608,989.716260 1942.721335,989.587914"/>
    <poly id="205860737" type="natural.wood" color="140,196,107" fill="1" layer="-4.00" shape="2009.453069,984.490484 2001.256325,982.805063 1987.308301,985.357479 1976.854032,978.465990 1978.764077,974.195785 1977.023706,965.105434 1985.326483,961.915720 1988.658730,953.559670 1982.978862,949.843648 1981.716708,938.486721 1983.963857,930.866521 1991.348162,926.250325 1998.827486,928.123474 2000.714767,920.874060 2007.019161,917.348075 2015.387968,917.956564 2019.802600,922.222768 2021.337392,927.251107 2026.977531,928.253993 2032.212620,925.829141 2040.263742,929.687641 2046.083759,930.145145 2052.030886,927.167117 2057.496235,928.349774 2062.477214,933.515935 2078.934101,941.216635 2080.291795,946.978605 2085.460609,952.142009 2081.823260,957.478708 2085.153483,968.938260 2081.810463,975.843489 2077.115368,978.083225 2068.383964,976.948409 2057.895269,980.535698 2042.941481,976.412776 2027.381661,980.794276 2022.090987,978.711864 2009.453069,984.490484"/>
    <poly id="206785694" type="building.yes" color="255,230,230" fill="1" layer="-1.00" shape="1033.082491,494.744848 1004.692237,490.961113 1002.920893,504.034805 1031.311328,507.829620 1033.082491,494.744848"/>
    <poly id="206785791" type="landuse.grass" color="194,194,130" fill="1" layer="-3.00" shape="702.850605,597.108081 697.887067,616.741054 684.613633,601.106468 691.866825,599.660574 702.850605,597.108081"/>
    <poly id="247366495" type="landuse.grass" color="194,194,130" fill="1" layer="-3.00" shape="1077.228537,983.284554 1072.327169,1000.723656 1067.070130,1033.131989 1064.142955,1036.375733 1060.785407,1038.019694 1056.616898,1038.446017 1052.741332,1036.774651 1049.715200,1033.950038 1048.267213,1030.559667 1056.376392,979.745277 1061.703806,962.178127 1067.075499,930.477000 1069.545663,925.955073 1073.086324,923.987224 1077.138960,924.205008 1080.788918,925.436606 1084.208063,928.731759 1085.103640,933.603331 1077.228537,983.284554"/>
    <poly id="247366495#1" type="leisure.common" color="207,245,201" fill="1" layer="-2.00" shape="1077.228537,983.284554 1072.327169,1000.723656 1067.070130,1033.131989 1064.142955,1036.375733 1060.785407,1038.019694 1056.616898,1038.446017 1052.741332,1036.774651 1049.715200,1033.950038 1048.267213,1030.559667 1056.376392,979.745277 1061.703806,962.178127 1067.075499,930.477000 1069.545663,925.955073 1073.086324,923.987224 1077.138960,924.205008 1080.788918,925.436606 1084.208063,928.731759 1085.103640,933.603331 1077.228537,983.284554"/>
    <poly id="350715866" type="amenity.university" color="237,199,199" fill="0" layer="-1.00" shape="1115.662749,505.934214 1119.197996,490.730263 1122.435768,467.300971 1126.969169,442.545766 1129.480772,421.563851 1134.495640,391.185934 1167.788454,390.511661 1191.022570,357.807549 1212.126256,334.305672 1243.937124,309.340404 1353.388592,228.247082 1453.374784,138.684984 1471.307982,123.226147 1487.319986,107.706763 1495.287034,96.569356 1501.161724,82.228248 1505.652874,53.917973 1505.782174,18.505086 1495.794629,3.509776 1489.014158,-2.704597 1478.979421,-8.793864 1466.992670,-12.772252 1372.459060,-22.223219 1355.117059,-25.591764 1338.777528,-31.777279 1324.611502,-40.630724 1314.533577,-50.396781"/>
    <poly id="350715870" type="amenity.university" color="237,199,199" fill="0" layer="-1.00" shape="909.974062,505.501182 921.440181,518.138145 927.627758,522.345505 943.641648,527.650102 967.516992,530.281406 995.477157,529.618821 1035.524187,524.759167 1042.591523,524.168702 1087.590924,520.399677 1099.007438,518.183967 1110.306628,512.935059 1115.662749,505.934214"/>
    <poly id="350715876" type="amenity.university" color="237,199,199" fill="0" layer="-1.00" shape="618.442427,-109.855563 651.068823,-31.567687 813.952253,327.521051 861.904056,433.231643 865.183407,438.400752 877.218771,446.421710 890.806371,444.229861 901.198846,447.655955 907.660318,456.334137 906.864074,469.005923 900.842853,481.931119 902.009907,489.678565 909.974062,505.501182"/>
    <poly id="361647746" type="waterway.stream" color="181,209,209" fill="0" layer="-4.00" shape="2194.671747,981.334241 2174.684834,974.903767 2167.431354,974.201475 2157.230256,968.923528 2153.960252,965.139019 2153.091073,960.665828 2148.991807,955.132328 2130.351917,945.181943 2113.649259,933.530630 2103.194980,935.190162 2091.744323,932.954330 2079.727558,935.533920 2071.649715,933.414816 2057.014458,932.510462 2047.564125,924.330532 2038.041778,921.922431 2026.809668,923.205636 1993.868624,913.774682 1980.843832,913.799250 1965.460373,917.391696 1954.698855,918.025535 1913.498014,915.427619 1868.751674,911.607717 1835.649719,901.868689"/>
    <poly id="361647750" type="waterway.stream" color="181,209,209" fill="0" layer="-4.00" shape="2369.656773,1209.113387 2359.352019,1202.474663 2350.053459,1200.395722 2342.690483,1191.520737 2343.723670,1186.532298 2340.085546,1178.289436 2331.642801,1171.224650 2326.654396,1159.866969 2328.382506,1151.733731 2327.165699,1144.197486 2321.681083,1136.723809 2314.386990,1116.882200 2307.559779,1106.105291 2292.379448,1095.085311 2290.065137,1088.861088 2285.813156,1068.642587 2280.442271,1060.380812 2223.255707,1013.911836 2204.644296,995.941815 2194.671747,981.334241"/>
    <poly id="368273196" type="building.university" color="255,230,230" fill="1" layer="-1.00" shape="935.706701,490.217267 928.200763,473.612638 948.586092,464.509703 946.440068,459.767129 966.099498,450.984891 968.374937,456.013559 988.521694,447.013737 995.628534,462.726989 972.951956,472.871345 981.741129,492.303843 965.742014,499.459876 957.222113,480.599410 935.706701,490.217267"/>
    <poly id="368273197" type="building.university" color="255,230,230" fill="1" layer="-1.00" shape="921.810080,466.927158 948.701653,455.259330 947.567942,452.661865 959.235065,447.595987 960.282235,449.984265 986.769248,438.488416 977.604003,417.599339 912.547770,445.817945 921.810080,466.927158"/>
    <poly id="376918179" type="leisure.park" color="207,245,201" fill="1" layer="-2.00" shape="2104.882064,971.274366 2118.072139,954.743517 2123.509091,947.574998 2132.775248,935.343863 2142.091678,924.407919 2168.663543,935.781680 2196.925628,952.812809 2208.603567,962.721163 2250.058898,1004.026556 2281.460090,1035.831738 2300.148244,1054.044244 2314.836567,1066.389515 2330.434930,1077.447652 2370.100447,1099.860611 2378.629784,1106.425670 2387.546509,1115.920284 2417.728314,1172.720378 2429.092720,1187.562199 2439.526372,1195.871526 2454.664131,1201.841192 2522.418503,1217.295689 2501.954472,1305.010724 2488.784291,1342.819310 2485.696129,1356.422098 2479.376308,1368.864961 2477.807506,1371.490921 2475.477970,1373.485609 2473.440852,1374.069308 2456.516504,1370.119591 2420.086366,1359.134429 2405.506489,1354.917681 2395.209800,1348.123780 2386.221990,1339.483080 2379.086974,1329.076220 2341.614404,1256.942480 2327.180816,1230.659405 2282.699450,1148.150088 2244.277297,1065.297137 2227.058800,1045.523423 2220.268205,1039.375872 2179.138567,1006.051690 2159.867685,990.793923 2146.998327,982.198926 2128.848470,975.065828 2116.767648,972.562331 2104.882064,971.274366"/>
    <poly id="376918183" type="landuse.grass" color="194,194,130" fill="1" layer="-3.00" shape="1618.203083,731.538776 1631.664491,719.988709 1649.640259,744.514652 1658.351197,756.393998 1676.205065,786.138652 1692.087693,807.405508 1689.104875,826.101665 1676.657708,810.666090 1618.203083,731.538776"/>
    <poly id="376918183#1" type="leisure.park" color="207,245,201" fill="1" layer="-2.00" shape="1618.203083,731.538776 1631.664491,719.988709 1649.640259,744.514652 1658.351197,756.393998 1676.205065,786.138652 1692.087693,807.405508 1689.104875,826.101665 1676.657708,810.666090 1618.203083,731.538776"/>
    <poly id="376918184" type="landuse.grass" color="194,194,130" fill="1" layer="-3.00" shape="1158.523464,565.142747 1160.609188,552.164124 1217.592698,574.326652 1363.934474,632.223043 1403.994721,646.823417 1415.981244,649.328755 1438.035828,653.038283 1449.856780,653.496901 1494.401202,654.274773 1523.304658,656.721081 1552.671656,663.746160 1566.953266,669.751190 1583.775665,678.931195 1597.200186,688.415621 1612.407267,700.609826 1628.509130,717.609135 1615.328138,727.637644 1609.560873,720.788195 1589.210852,698.046990 1566.824470,682.357922 1543.363692,673.130951 1527.729925,669.582455 1513.084295,667.946782 1505.310903,667.362591 1451.398864,667.607736 1425.541694,665.792451 1414.578699,663.338621 1398.126487,658.771873 1350.590925,640.415047 1213.465775,586.172076 1158.523464,565.142747"/>
    <poly id="376918184#1" type="leisure.common" color="207,245,201" fill="1" layer="-2.00" shape="1158.523464,565.142747 1160.609188,552.164124 1217.592698,574.326652 1363.934474,632.223043 1403.994721,646.823417 1415.981244,649.328755 1438.035828,653.038283 1449.856780,653.496901 1494.401202,654.274773 1523.304658,656.721081 1552.671656,663.746160 1566.953266,669.751190 1583.775665,678.931195 1597.200186,688.415621 1612.407267,700.609826 1628.509130,717.609135 1615.328138,727.637644 1609.560873,720.788195 1589.210852,698.046990 1566.824470,682.357922 1543.363692,673.130951 1527.729925,669.582455 1513.084295,667.946782 1505.310903,667.362591 1451.398864,667.607736 1425.541694,665.792451 1414.578699,663.338621 1398.126487,658.771873 1350.590925,640.415047 1213.465775,586.172076 1158.523464,565.142747"/>
    <poly id="439431845" type="building.garage" color="255,230,230" fill="1" layer="-1.00" shape="1158.286233,603.946441 1177.221546,591.308914 1290.488971,634.148638 1280.262467,692.847272 1185.541858,676.552411 1185.908153,673.046957 1158.840700,668.391255 1160.602227,657.510785 1151.035024,652.721476 1154.394642,646.934925 1154.943427,643.061292 1155.368040,639.975887 1156.030399,635.303103 1156.522395,631.829045 1153.235951,627.612643 1158.286233,603.946441"/>
    <poly id="439431847" type="building.roof" color="255,230,230" fill="1" layer="-1.00" shape="1155.368040,639.975887 1166.424478,641.686401 1167.045258,637.025300 1156.030399,635.303103 1155.368040,639.975887"/>
    <poly id="439432261" type="landuse.grass" color="194,194,130" fill="1" layer="-3.00" shape="1022.591748,1179.345097 1027.787870,1177.098367 1031.347227,1177.123990 1034.927419,1178.578147 1038.463157,1181.993451 1042.164827,1177.464649 1066.883463,1051.100428 1065.315975,1048.819429 1044.564451,1045.743864 1042.383813,1047.935544 1020.502173,1174.900758 1022.591748,1179.345097"/>
    <poly id="439432325" type="amenity.fire_station" color="237,199,199" fill="1" layer="-1.00" shape="1092.561424,1029.869205 1131.831470,1036.052774 1133.043276,1030.408343 1136.916476,1029.055902 1144.638692,981.780419 1092.053827,972.900247 1088.678465,996.929629 1096.955642,998.414930 1092.561424,1029.869205"/>
    <poly id="439432325#1" type="building.yes" color="255,230,230" fill="1" layer="-1.00" shape="1092.561424,1029.869205 1131.831470,1036.052774 1133.043276,1030.408343 1136.916476,1029.055902 1144.638692,981.780419 1092.053827,972.900247 1088.678465,996.929629 1096.955642,998.414930 1092.561424,1029.869205"/>
    <poly id="483129396" type="landuse.residential" color="235,235,227" fill="1" layer="-3.00" shape="720.802729,716.104523 729.066159,725.254949 736.729359,718.995975 728.381161,709.758177 720.802729,716.104523"/>
    <poly id="586416641" type="leisure.pitch" color="207,245,201" fill="1" layer="-2.00" shape="601.267478,500.773469 606.132805,455.046327 677.062812,462.486439 672.197668,508.213620 601.267478,500.773469"/>
    <poly id="586416641#1" type="sport.soccer" color="79,230,125" fill="1" layer="-2.00" shape="601.267478,500.773469 606.132805,455.046327 677.062812,462.486439 672.197668,508.213620 601.267478,500.773469"/>
    <poly id="586416642" type="leisure.pitch" color="207,245,201" fill="1" layer="-2.00" shape="684.345620,430.126292 690.146585,382.735100 716.691238,385.937027 710.890344,433.328236 684.345620,430.126292"/>
    <poly id="586416642#1" type="sport.soccer" color="79,230,125" fill="1" layer="-2.00" shape="684.345620,430.126292 690.146585,382.735100 716.691238,385.937027 710.890344,433.328236 684.345620,430.126292"/>
    <poly id="608935866" type="building.yes" color="255,230,230" fill="1" layer="-1.00" shape="1050.554781,435.486588 1074.672999,439.033517 1078.528784,415.041406 1066.173492,412.995365 1064.913303,422.472898 1057.168456,421.688728 1056.905868,423.719519 1056.579450,426.382589 1051.708537,425.866618 1050.554781,435.486588"/>
    <poly id="608941896" type="building.yes" color="255,230,230" fill="1" layer="-1.00" shape="1067.376025,451.778031 1066.962486,454.907577 1059.003283,453.738864 1057.233789,465.505540 1065.650811,466.578963 1064.655951,474.213961 1092.690467,477.936329 1092.172357,480.336367 1064.320160,476.234744 1061.842149,490.227014 1069.896569,491.482948 1068.818625,499.861269 1088.608191,502.142196 1088.030522,506.182393 1103.664672,508.346721 1105.342820,496.758591 1103.760458,496.316479 1105.533805,484.815570 1104.136674,484.193535 1105.297596,480.787250 1103.803811,479.978329 1104.130223,477.315257 1115.698636,479.073701 1117.437231,458.756573 1067.376025,451.778031"/>
    <poly id="608941897" type="building.yes" color="255,230,230" fill="1" layer="-1.00" shape="1050.652788,514.447954 1063.327249,516.190298 1063.467137,500.027964 1067.065668,499.886847 1067.131460,497.958614 1063.151964,497.739773 1063.480739,494.522855 1051.548649,493.589326 1050.652788,514.447954"/>
    <poly id="623073437" type="building.yes" color="255,230,230" fill="1" layer="-1.00" shape="907.515827,444.994145 902.589556,433.524510 925.222245,421.088097 930.464814,434.923437 907.515827,444.994145"/>
    <poly id="636363212" type="building.yes" color="255,230,230" fill="1" layer="-1.00" shape="2150.746696,403.968983 2163.150179,407.863302 2165.424834,400.707860 2153.031627,396.802316 2150.746696,403.968983"/>
    <poi id="3834379057" type="amenity.fuel" color="237,199,199" layer="4.00" x="1691.80" y="715.06"/>
    <poi id="5233433221" type="amenity.toilets" color="237,199,199" layer="4.00" x="1690.29" y="719.41"/>
    <poi id="7447493346" type="man_made.tower" color="255,230,230" layer="4.00" x="1406.23" y="1154.97"/>
    <poi id="7447496259" type="man_made.tower" color="255,230,230" layer="4.00" x="888.62" y="802.56"/>
</additional>
