<?xml version="1.0" encoding="UTF-8"?>

<!-- generated on 2021-06-20 15:40:43 by Eclipse SUMO duarouter Version 1.9.2
<configuration xmlns:xsi="http://www.w3.org/2001/XMLSchema-instance" xsi:noNamespaceSchemaLocation="http://sumo.dlr.de/xsd/duarouterConfiguration.xsd">

    <input>
        <net-file value="/home/diego/PycharmProjects/hadoop-simulation-urban-modbility/2021-06-20-15-40-03/osm.net.xml"/>
        <route-files value="/home/diego/PycharmProjects/hadoop-simulation-urban-modbility/2021-06-20-15-40-03/osm.motorcycle.trips.xml"/>
    </input>

    <output>
        <output-file value="/home/diego/PycharmProjects/hadoop-simulation-urban-modbility/2021-06-20-15-40-03/osm.motorcycle.trips.xml.tmp"/>
        <write-trips value="true"/>
    </output>

    <time>
        <begin value="0"/>
        <end value="600"/>
    </time>

    <report>
        <no-warnings value="true"/>
        <ignore-errors value="true"/>
        <no-step-log value="true"/>
    </report>

</configuration>
-->

<routes xmlns:xsi="http://www.w3.org/2001/XMLSchema-instance" xsi:noNamespaceSchemaLocation="http://sumo.dlr.de/xsd/routes_file.xsd">
    <vType id="moto_motorcycle" vClass="motorcycle"/>
    <trip id="moto0" type="moto_motorcycle" depart="0.00" departLane="best" departSpeed="max" from="-917362969" to="-130920004#0"/>
    <trip id="moto1" type="moto_motorcycle" depart="1.17" departLane="best" from="-154166040#2" to="-154166035#0"/>
    <trip id="moto2" type="moto_motorcycle" depart="2.35" departLane="best" from="206785706#6" to="154342285#1"/>
    <trip id="moto3" type="moto_motorcycle" depart="3.52" departLane="best" from="-154157937#0" to="-171309464#0"/>
    <trip id="moto4" type="moto_motorcycle" depart="4.70" departLane="best" from="154979272#0" to="-361645994#0"/>
    <trip id="moto5" type="moto_motorcycle" depart="5.87" departLane="best" from="-205860367#4" to="441354964#2"/>
    <trip id="moto6" type="moto_motorcycle" depart="7.05" departLane="best" from="-205860598" to="-205860368#1"/>
    <trip id="moto7" type="moto_motorcycle" depart="8.22" departLane="best" from="225052923#8" to="-205860612#4"/>
    <trip id="moto8" type="moto_motorcycle" depart="9.40" departLane="best" from="923743990" to="153481091"/>
    <trip id="moto9" type="moto_motorcycle" depart="10.57" departLane="best" from="91885090" to="154157937#1"/>
    <trip id="moto10" type="moto_motorcycle" depart="11.74" departLane="best" from="130920002#0" to="472174219#2"/>
    <trip id="moto11" type="moto_motorcycle" depart="12.92" departLane="best" from="154797815#0" to="-154797807#0"/>
    <trip id="moto12" type="moto_motorcycle" depart="14.09" departLane="best" from="205860374#1" to="154166035#3"/>
    <trip id="moto13" type="moto_motorcycle" depart="15.27" departLane="best" from="-129213020#1" to="-205860675#4"/>
    <trip id="moto14" type="moto_motorcycle" depart="16.44" departLane="best" from="-171309463#1" to="-170773053#4"/>
    <trip id="moto15" type="moto_motorcycle" depart="17.62" departLane="best" from="206785705#5" to="-153481100#1"/>
    <trip id="moto16" type="moto_motorcycle" depart="18.79" departLane="best" departSpeed="max" from="-155445054#1" to="130919995#5"/>
    <trip id="moto17" type="moto_motorcycle" depart="19.97" departLane="best" from="152907293#1" to="-169923328#1"/>
    <trip id="moto18" type="moto_motorcycle" depart="21.14" departLane="best" from="-205860365#9" to="205860409#2"/>
    <trip id="moto19" type="moto_motorcycle" depart="22.31" departLane="best" from="130920002#4" to="-915689633#0"/>
    <trip id="moto20" type="moto_motorcycle" depart="23.49" departLane="best" from="527267087#5" to="91885090"/>
    <trip id="moto21" type="moto_motorcycle" depart="24.66" departLane="best" from="154166090#0" to="173550589#1"/>
    <trip id="moto22" type="moto_motorcycle" depart="25.84" departLane="best" from="154166025#2" to="205860341#0"/>
    <trip id="moto23" type="moto_motorcycle" depart="27.01" departLane="best" from="153474808#8" to="206785664#0"/>
    <trip id="moto24" type="moto_motorcycle" depart="28.19" departLane="best" from="154797730#3" to="154797888#1"/>
    <trip id="moto25" type="moto_motorcycle" depart="29.36" departLane="best" from="169923282#3" to="-205860456#2"/>
    <trip id="moto27" type="moto_motorcycle" depart="31.71" departLane="best" from="-205860365#9" to="419930292"/>
    <trip id="moto28" type="moto_motorcycle" depart="32.88" departLane="best" departSpeed="max" from="205860669#0" to="173498516#2"/>
    <trip id="moto29" type="moto_motorcycle" depart="34.06" departLane="best" from="162945054#1" to="-130882582#4"/>
    <trip id="moto30" type="moto_motorcycle" depart="35.23" departLane="best" from="205860548" to="-205860456#0"/>
    <trip id="moto31" type="moto_motorcycle" depart="36.41" departLane="best" from="-154797715#2" to="-154168190#0"/>
    <trip id="moto32" type="moto_motorcycle" depart="37.58" departLane="best" from="173550589#1" to="-169923282#6"/>
    <trip id="moto33" type="moto_motorcycle" depart="38.76" departLane="best" from="130877765#0" to="-130882583#5"/>
    <trip id="moto34" type="moto_motorcycle" depart="39.93" departLane="best" from="259262958#0" to="-169923318#0"/>
    <trip id="moto35" type="moto_motorcycle" depart="41.11" departLane="best" from="205860524#1" to="225052923#1"/>
    <trip id="moto36" type="moto_motorcycle" depart="42.28" departLane="best" from="-206785663#2" to="380698888#0"/>
    <trip id="moto37" type="moto_motorcycle" depart="43.45" departLane="best" from="205860524#1" to="-205860367#5"/>
    <trip id="moto38" type="moto_motorcycle" depart="44.63" departLane="best" from="205860438" to="-154166090#0"/>
    <trip id="moto39" type="moto_motorcycle" depart="45.80" departLane="best" from="-206785643#2" to="206785682"/>
    <trip id="moto41" type="moto_motorcycle" depart="48.15" departLane="best" departSpeed="max" from="570276162#0" to="-154979278#3"/>
    <trip id="moto42" type="moto_motorcycle" depart="49.33" departLane="best" from="154157949#3" to="191519107#1"/>
    <trip id="moto43" type="moto_motorcycle" depart="50.50" departLane="best" from="-570276153#1" to="-205860435#0"/>
    <trip id="moto44" type="moto_motorcycle" depart="51.68" departLane="best" from="165885103#0" to="141650095#1"/>
    <trip id="moto45" type="moto_motorcycle" depart="52.85" departLane="best" from="141650155" to="259262949#1"/>
    <trip id="moto46" type="moto_motorcycle" depart="54.02" departLane="best" from="205860460#1" to="-154979246#0"/>
    <trip id="moto47" type="moto_motorcycle" depart="55.20" departLane="best" from="-191519133#2" to="152850233#10"/>
    <trip id="moto48" type="moto_motorcycle" depart="56.37" departLane="best" from="206785669#1" to="-153481111#1"/>
    <trip id="moto49" type="moto_motorcycle" depart="57.55" departLane="best" from="-162945054#1" to="171309450#1"/>
    <trip id="moto50" type="moto_motorcycle" depart="58.72" departLane="best" from="153474789#1" to="-191519125#0"/>
    <trip id="moto51" type="moto_motorcycle" depart="59.90" departLane="best" from="166907800#2" to="-130882581#1"/>
    <trip id="moto52" type="moto_motorcycle" depart="61.07" departLane="best" from="205860359#3" to="205860386#0"/>
    <trip id="moto53" type="moto_motorcycle" depart="62.25" departLane="best" from="-154166105#2" to="-923237983"/>
    <trip id="moto54" type="moto_motorcycle" depart="63.42" departLane="best" from="153481117#2" to="-152907345#1"/>
    <trip id="moto55" type="moto_motorcycle" depart="64.59" departLane="best" from="130920003#3" to="205860460#2"/>
    <trip id="moto56" type="moto_motorcycle" depart="65.77" departLane="best" from="245665881#3" to="154797835#1"/>
    <trip id="moto57" type="moto_motorcycle" depart="66.94" departLane="best" from="191519108#1" to="153474814#2"/>
    <trip id="moto58" type="moto_motorcycle" depart="68.12" departLane="best" from="-570276163#0" to="154166040#5"/>
    <trip id="moto59" type="moto_motorcycle" depart="69.29" departLane="best" from="-915689632" to="205860311#9"/>
    <trip id="moto60" type="moto_motorcycle" depart="70.47" departLane="best" from="130883282#0" to="-130920003#2"/>
    <trip id="moto62" type="moto_motorcycle" depart="72.82" departLane="best" from="205860360#2" to="205860645#2"/>
    <trip id="moto63" type="moto_motorcycle" depart="73.99" departLane="best" from="-130919995#4" to="154166035#3"/>
    <trip id="moto64" type="moto_motorcycle" depart="75.16" departLane="best" departSpeed="max" from="512705360" to="-169923277#4"/>
    <trip id="moto65" type="moto_motorcycle" depart="76.34" departLane="best" from="-130919997" to="-154797806"/>
    <trip id="moto66" type="moto_motorcycle" depart="77.51" departLane="best" from="205860341#2" to="-154166106#3"/>
    <trip id="moto67" type="moto_motorcycle" depart="78.69" departLane="best" from="205860571" to="570276151#3"/>
    <trip id="moto68" type="moto_motorcycle" depart="79.86" departLane="best" from="-154166105#7" to="-130920001#6"/>
    <trip id="moto69" type="moto_motorcycle" depart="81.04" departLane="best" from="-154166080#2" to="205860388#3"/>
    <trip id="moto70" type="moto_motorcycle" depart="82.21" departLane="best" from="130877766" to="-380010054#0"/>
    <trip id="moto71" type="moto_motorcycle" depart="83.39" departLane="best" from="153474816" to="-206789198#1"/>
    <trip id="moto72" type="moto_motorcycle" depart="84.56" departLane="best" from="-154166104#1" to="570276148#0"/>
    <trip id="moto73" type="moto_motorcycle" depart="85.73" departLane="best" from="205860272#3" to="570276152#1"/>
    <trip id="moto74" type="moto_motorcycle" depart="86.91" departLane="best" from="-205860372#0" to="205860474#6"/>
    <trip id="moto75" type="moto_motorcycle" depart="88.08" departLane="best" from="154157949#2" to="152907255#4"/>
    <trip id="moto76" type="moto_motorcycle" depart="89.26" departLane="best" from="152907345#3" to="205860437"/>
    <trip id="moto78" type="moto_motorcycle" depart="91.61" departLane="best" from="-155035507#2" to="-169923332#1"/>
    <trip id="moto79" type="moto_motorcycle" depart="92.78" departLane="best" from="152907262#3" to="191519125#3"/>
    <trip id="moto80" type="moto_motorcycle" depart="93.96" departLane="best" departSpeed="max" from="665479101" to="154157918#0"/>
    <trip id="moto81" type="moto_motorcycle" depart="95.13" departLane="best" from="-154979276#2" to="-130883283#4"/>
    <trip id="moto82" type="moto_motorcycle" depart="96.30" departLane="best" from="-155035507#0" to="-152907362#1"/>
    <trip id="moto83" type="moto_motorcycle" depart="97.48" departLane="best" from="205860311#10" to="446749128#2"/>
    <trip id="moto84" type="moto_motorcycle" depart="98.65" departLane="best" from="-130877764#1" to="130919998#3"/>
    <trip id="moto85" type="moto_motorcycle" depart="99.83" departLane="best" from="-173498516#2" to="173550528#6"/>
    <trip id="moto86" type="moto_motorcycle" depart="101.00" departLane="best" from="169923334#4" to="380698881#2"/>
    <trip id="moto87" type="moto_motorcycle" depart="102.18" departLane="best" from="170773053#3" to="171309451#9"/>
    <trip id="moto88" type="moto_motorcycle" depart="103.35" departLane="best" from="153047125#2" to="-154157918#1"/>
    <trip id="moto89" type="moto_motorcycle" depart="104.53" departLane="best" from="-154166035#6" to="570276149#1"/>
    <trip id="moto90" type="moto_motorcycle" depart="105.70" departLane="best" from="169923282#5" to="-205860372#0"/>
    <trip id="moto91" type="moto_motorcycle" depart="106.87" departLane="best" from="380698877#1" to="-155035496#1"/>
    <trip id="moto92" type="moto_motorcycle" depart="108.05" departLane="best" from="130920002#3" to="-205860612#3"/>
    <trip id="moto93" type="moto_motorcycle" depart="109.22" departLane="best" from="-155035525#2" to="-259262954#2"/>
    <trip id="moto94" type="moto_motorcycle" depart="110.40" departLane="best" from="205860371#2" to="-169923282#6"/>
    <trip id="moto95" type="moto_motorcycle" depart="111.57" departLane="best" from="154797814#0" to="-173550578#1"/>
    <trip id="moto96" type="moto_motorcycle" depart="112.75" departLane="best" from="-154797861#0" to="154166080#1"/>
    <trip id="moto97" type="moto_motorcycle" depart="113.92" departLane="best" from="-205860381#2" to="205860654#8"/>
    <trip id="moto98" type="moto_motorcycle" depart="115.10" departLane="best" from="888777000#1" to="-190855396"/>
    <trip id="moto99" type="moto_motorcycle" depart="116.27" departLane="best" from="-205860384#4" to="205860427#0"/>
    <trip id="moto100" type="moto_motorcycle" depart="117.44" departLane="best" departSpeed="max" from="-915429556#1" to="439478173#2"/>
    <trip id="moto101" type="moto_motorcycle" depart="118.62" departLane="best" from="205860526#0" to="-444488635#1"/>
    <trip id="moto102" type="moto_motorcycle" depart="119.79" departLane="best" from="169923256#3" to="205860535#6"/>
    <trip id="moto103" type="moto_motorcycle" depart="120.97" departLane="best" from="206785672#4" to="206785675#0"/>
    <trip id="moto104" type="moto_motorcycle" depart="122.14" departLane="best" from="225052914#0" to="-141650112#4"/>
    <trip id="moto105" type="moto_motorcycle" depart="123.32" departLane="best" from="-154166072#1" to="154979248"/>
    <trip id="moto106" type="moto_motorcycle" depart="124.49" departLane="best" from="-130882583#4" to="205860463#0"/>
    <trip id="moto107" type="moto_motorcycle" depart="125.67" departLane="best" from="29011863#3" to="169923282#5"/>
    <trip id="moto109" type="moto_motorcycle" depart="128.01" departLane="best" from="915811867#1" to="-205860428#3"/>
    <trip id="moto110" type="moto_motorcycle" depart="129.19" departLane="best" from="154797804#1" to="-225052928#0"/>
    <trip id="moto111" type="moto_motorcycle" depart="130.36" departLane="best" departSpeed="max" from="154157932#0" to="368167200#6"/>
    <trip id="moto112" type="moto_motorcycle" depart="131.54" departLane="best" from="205860662#3" to="-205860353#0"/>
    <trip id="moto113" type="moto_motorcycle" depart="132.71" departLane="best" from="570276154#1" to="205860463#0"/>
    <trip id="moto114" type="moto_motorcycle" depart="133.89" departLane="best" from="-130883283#3" to="154166025#0"/>
    <trip id="moto115" type="moto_motorcycle" depart="135.06" departLane="best" from="-205860456#0" to="-570276160"/>
    <trip id="moto116" type="moto_motorcycle" depart="136.24" departLane="best" from="-154797738" to="444491948#4"/>
    <trip id="moto117" type="moto_motorcycle" depart="137.41" departLane="best" from="-154166063" to="225052925#8"/>
    <trip id="moto118" type="moto_motorcycle" depart="138.58" departLane="best" departSpeed="max" from="512705363" to="-141650072#5"/>
    <trip id="moto119" type="moto_motorcycle" depart="139.76" departLane="best" from="-130883284#1" to="205860427#0"/>
    <trip id="moto120" type="moto_motorcycle" depart="140.93" departLane="best" from="-173550585" to="-205860675#2"/>
    <trip id="moto121" type="moto_motorcycle" depart="142.11" departLane="best" from="-154979262#1" to="-152907402#0"/>
    <trip id="moto122" type="moto_motorcycle" depart="143.28" departLane="best" from="205860311#15" to="154157918#4"/>
    <trip id="moto123" type="moto_motorcycle" depart="144.46" departLane="best" from="370027289#1" to="-153481111#3"/>
    <trip id="moto124" type="moto_motorcycle" depart="145.63" departLane="best" from="154797800#0" to="-154166040#0"/>
    <trip id="moto125" type="moto_motorcycle" depart="146.81" departLane="best" from="-915429557#1" to="-154166025#3"/>
    <trip id="moto126" type="moto_motorcycle" depart="147.98" departLane="best" from="380698884#2" to="-153474821#1"/>
    <trip id="moto127" type="moto_motorcycle" depart="149.15" departLane="best" from="-154166060#0" to="205860305#2"/>
    <trip id="moto128" type="moto_motorcycle" depart="150.33" departLane="best" from="205860526#1" to="154166105#4"/>
    <trip id="moto129" type="moto_motorcycle" depart="151.50" departLane="best" from="154797681#3" to="154168197"/>
    <trip id="moto130" type="moto_motorcycle" depart="152.68" departLane="best" from="154305445#0" to="-169923326#2"/>
    <trip id="moto131" type="moto_motorcycle" depart="153.85" departLane="best" from="439478173#3" to="205860626"/>
    <trip id="moto132" type="moto_motorcycle" depart="155.03" departLane="best" from="-368167200#1" to="191519110#1"/>
    <trip id="moto133" type="moto_motorcycle" depart="156.20" departLane="best" departSpeed="max" from="-154797855" to="154797882#2"/>
    <trip id="moto134" type="moto_motorcycle" depart="157.38" departLane="best" from="130883286#2" to="-205860381#3"/>
    <trip id="moto135" type="moto_motorcycle" depart="158.55" departLane="best" from="130882581#1" to="-205860389#9"/>
    <trip id="moto136" type="moto_motorcycle" depart="159.72" departLane="best" from="-130882582#4" to="-205860460#2"/>
    <trip id="moto137" type="moto_motorcycle" depart="160.90" departLane="best" from="-130882582#4" to="205860311#7"/>
    <trip id="moto138" type="moto_motorcycle" depart="162.07" departLane="best" from="-154979267#3" to="-441354964#0"/>
    <trip id="moto139" type="moto_motorcycle" depart="163.25" departLane="best" from="205860668#5" to="205860473#3"/>
    <trip id="moto140" type="moto_motorcycle" depart="164.42" departLane="best" from="-153481111#4" to="206785678#0"/>
    <trip id="moto141" type="moto_motorcycle" depart="165.60" departLane="best" from="380698883#2" to="206785678#1"/>
    <trip id="moto142" type="moto_motorcycle" depart="166.77" departLane="best" from="154295979" to="154295978#5"/>
    <trip id="moto143" type="moto_motorcycle" depart="167.95" departLane="best" from="205860535#2" to="-173550551"/>
    <trip id="moto144" type="moto_motorcycle" depart="169.12" departLane="best" from="154797774" to="205860367#5"/>
    <trip id="moto145" type="moto_motorcycle" depart="170.29" departLane="best" from="-153474797#2" to="153474821#2"/>
    <trip id="moto146" type="moto_motorcycle" depart="171.47" departLane="best" from="-154157918#1" to="206785682"/>
    <trip id="moto147" type="moto_motorcycle" depart="172.64" departLane="best" from="154166075#1" to="205860428#2"/>
    <trip id="moto148" type="moto_motorcycle" depart="173.82" departLane="best" from="205860439#5" to="155035507#2"/>
    <trip id="moto149" type="moto_motorcycle" depart="174.99" departLane="best" from="361645994#4" to="225052903#4"/>
    <trip id="moto150" type="moto_motorcycle" depart="176.17" departLane="best" from="-154797754" to="-225052923#4"/>
    <trip id="moto151" type="moto_motorcycle" depart="177.34" departLane="best" from="444488635#4" to="-205860475#2"/>
    <trip id="moto152" type="moto_motorcycle" depart="178.52" departLane="best" from="205860657#1" to="205860305#1"/>
    <trip id="moto153" type="moto_motorcycle" depart="179.69" departLane="best" from="-154979278#2" to="-169923328#2"/>
    <trip id="moto154" type="moto_motorcycle" depart="180.86" departLane="best" from="205860672#0" to="225052923#9"/>
    <trip id="moto155" type="moto_motorcycle" depart="182.04" departLane="best" from="205860485#1" to="-154979231"/>
    <trip id="moto156" type="moto_motorcycle" depart="183.21" departLane="best" from="205860479" to="141650113#4"/>
    <trip id="moto157" type="moto_motorcycle" depart="184.39" departLane="best" from="141650083" to="-205860389#4"/>
    <trip id="moto158" type="moto_motorcycle" depart="185.56" departLane="best" from="570276153#1" to="205860534#2"/>
    <trip id="moto159" type="moto_motorcycle" depart="186.74" departLane="best" from="205860473#2" to="-154797715#2"/>
    <trip id="moto160" type="moto_motorcycle" depart="187.91" departLane="best" from="-154166090#1" to="205860675#2"/>
    <trip id="moto161" type="moto_motorcycle" depart="189.09" departLane="best" from="205860375" to="-205860381#1"/>
    <trip id="moto162" type="moto_motorcycle" depart="190.26" departLane="best" from="130883283#0" to="444491948#5"/>
    <trip id="moto163" type="moto_motorcycle" depart="191.43" departLane="best" from="441354964#1" to="205860668#5"/>
    <trip id="moto164" type="moto_motorcycle" depart="192.61" departLane="best" from="-154797732#6" to="173550528#2"/>
    <trip id="moto165" type="moto_motorcycle" depart="193.78" departLane="best" from="130920000#0" to="-130882581#0"/>
    <trip id="moto166" type="moto_motorcycle" depart="194.96" departLane="best" from="130920004#2" to="-154166104#1"/>
    <trip id="moto167" type="moto_motorcycle" depart="196.13" departLane="best" departSpeed="max" from="62279855#0" to="-153474821#4"/>
    <trip id="moto168" type="moto_motorcycle" depart="197.31" departLane="best" from="205860439#2" to="-225052909#3"/>
    <trip id="moto169" type="moto_motorcycle" depart="198.48" departLane="best" from="205860272#0" to="154913998#0"/>
    <trip id="moto170" type="moto_motorcycle" depart="199.66" departLane="best" from="205860389#12" to="205860272#3"/>
    <trip id="moto171" type="moto_motorcycle" depart="200.83" departLane="best" from="-206785663#3" to="-152907262#1"/>
    <trip id="moto172" type="moto_motorcycle" depart="202.00" departLane="best" from="-154979267#1" to="205860398#1"/>
    <trip id="moto173" type="moto_motorcycle" depart="203.18" departLane="best" from="130920004#3" to="-205860427#1"/>
    <trip id="moto174" type="moto_motorcycle" depart="204.35" departLane="best" from="-205860461#6" to="154797780"/>
    <trip id="moto175" type="moto_motorcycle" depart="205.53" departLane="best" from="-225052910#3" to="-141650155"/>
    <trip id="moto176" type="moto_motorcycle" depart="206.70" departLane="best" from="225052909#6" to="-225052928#0"/>
    <trip id="moto177" type="moto_motorcycle" depart="207.88" departLane="best" from="-259262945" to="205860460#1"/>
    <trip id="moto178" type="moto_motorcycle" depart="209.05" departLane="best" from="-154797766" to="154797807#0"/>
    <trip id="moto179" type="moto_motorcycle" depart="210.23" departLane="best" from="154168227#1" to="154797800#1"/>
    <trip id="moto180" type="moto_motorcycle" depart="211.40" departLane="best" from="-443083020#1" to="154168197"/>
    <trip id="moto181" type="moto_motorcycle" depart="212.57" departLane="best" from="130919995#5" to="923237983"/>
    <trip id="moto182" type="moto_motorcycle" depart="213.75" departLane="best" from="259262956#3" to="130886846#1"/>
    <trip id="moto183" type="moto_motorcycle" depart="214.92" departLane="best" departSpeed="max" from="-154247169#3" to="-169923281#1"/>
    <trip id="moto184" type="moto_motorcycle" depart="216.10" departLane="best" from="-130920001#8" to="154166101#8"/>
    <trip id="moto185" type="moto_motorcycle" depart="217.27" departLane="best" from="-361645994#4" to="205860461#5"/>
    <trip id="moto186" type="moto_motorcycle" depart="218.45" departLane="best" from="154166060#0" to="154797830"/>
    <trip id="moto187" type="moto_motorcycle" depart="219.62" departLane="best" departSpeed="max" from="-154797814#1" to="-154797913#2"/>
    <trip id="moto188" type="moto_motorcycle" depart="220.80" departLane="best" departSpeed="max" from="-205860669#4" to="173550542"/>
    <trip id="moto189" type="moto_motorcycle" depart="221.97" departLane="best" from="247366429#0" to="205860675#3"/>
    <trip id="moto190" type="moto_motorcycle" depart="223.14" departLane="best" from="154166058" to="-154247174#1"/>
    <trip id="moto191" type="moto_motorcycle" depart="224.32" departLane="best" from="154797798#0" to="205860672#6"/>
    <trip id="moto192" type="moto_motorcycle" depart="225.49" departLane="best" from="156352423#0" to="205860382#0"/>
    <trip id="moto193" type="moto_motorcycle" depart="226.67" departLane="best" from="153474797#2" to="154880303#6"/>
    <trip id="moto194" type="moto_motorcycle" depart="227.84" departLane="best" departSpeed="max" from="-205860401#3" to="527267087#0"/>
    <trip id="moto195" type="moto_motorcycle" depart="229.02" departLane="best" from="-153481113#2" to="-153474808#1"/>
    <trip id="moto196" type="moto_motorcycle" depart="230.19" departLane="best" from="-205860485#0" to="173550589#1"/>
    <trip id="moto197" type="moto_motorcycle" depart="231.37" departLane="best" from="-205860644" to="141650112#0"/>
    <trip id="moto198" type="moto_motorcycle" depart="232.54" departLane="best" from="-441354964#4" to="154797861#1"/>
    <trip id="moto199" type="moto_motorcycle" depart="233.71" departLane="best" from="153481111#1" to="153474797#4"/>
    <trip id="moto200" type="moto_motorcycle" depart="234.89" departLane="best" from="-205860473#2" to="-130920000#4"/>
    <trip id="moto201" type="moto_motorcycle" depart="236.06" departLane="best" departSpeed="max" from="154157948#0" to="206785631#1"/>
    <trip id="moto202" type="moto_motorcycle" depart="237.24" departLane="best" from="154247168#1" to="-169923266#0"/>
    <trip id="moto203" type="moto_motorcycle" depart="238.41" departLane="best" from="153474797#8" to="-152907276#0"/>
    <trip id="moto204" type="moto_motorcycle" depart="239.59" departLane="best" from="-361645994#2" to="169923277#8"/>
    <trip id="moto205" type="moto_motorcycle" depart="240.76" departLane="best" from="205860424" to="205860389#7"/>
    <trip id="moto206" type="moto_motorcycle" depart="241.94" departLane="best" from="154300832#2" to="191519110#1"/>
    <trip id="moto207" type="moto_motorcycle" depart="243.11" departLane="best" from="-130919995#2" to="-205860612#0"/>
    <trip id="moto208" type="moto_motorcycle" depart="244.28" departLane="best" from="-62277607#0" to="205860389#3"/>
    <trip id="moto209" type="moto_motorcycle" depart="245.46" departLane="best" from="-154797732#3" to="-169923311#2"/>
    <trip id="moto210" type="moto_motorcycle" depart="246.63" departLane="best" from="-205860612#2" to="-225052923#1"/>
    <trip id="moto211" type="moto_motorcycle" depart="247.81" departLane="best" from="888777000#1" to="205860534#7"/>
    <trip id="moto212" type="moto_motorcycle" depart="248.98" departLane="best" from="527267087#0" to="205860463#0"/>
    <trip id="moto213" type="moto_motorcycle" depart="250.16" departLane="best" from="-205860409#0" to="-205860400#4"/>
    <trip id="moto214" type="moto_motorcycle" depart="251.33" departLane="best" from="173550587#0" to="-225052910#2"/>
    <trip id="moto215" type="moto_motorcycle" depart="252.51" departLane="best" from="-570276162#1" to="441225645"/>
    <trip id="moto216" type="moto_motorcycle" depart="253.68" departLane="best" from="368167200#2" to="-154157948#1"/>
    <trip id="moto217" type="moto_motorcycle" depart="254.85" departLane="best" from="373344070#7" to="-154979269#1"/>
    <trip id="moto218" type="moto_motorcycle" depart="256.03" departLane="best" departSpeed="max" from="225052928#0" to="-154979272#0"/>
    <trip id="moto219" type="moto_motorcycle" depart="257.20" departLane="best" from="444488634#0" to="570276149#1"/>
    <trip id="moto220" type="moto_motorcycle" depart="258.38" departLane="best" departSpeed="max" from="-205860392" to="915689633#0"/>
    <trip id="moto221" type="moto_motorcycle" depart="259.55" departLane="best" from="-155035508#4" to="205860273#2"/>
    <trip id="moto222" type="moto_motorcycle" depart="260.73" departLane="best" from="-130883282#0" to="155445055#0"/>
    <trip id="moto223" type="moto_motorcycle" depart="261.90" departLane="best" from="-154247166#0" to="-205860474#0"/>
    <trip id="moto224" type="moto_motorcycle" depart="263.08" departLane="best" from="-570276159#0" to="153474808#7"/>
    <trip id="moto225" type="moto_motorcycle" depart="264.25" departLane="best" from="-154797715#0" to="-154797813#0"/>
    <trip id="moto226" type="moto_motorcycle" depart="265.42" departLane="best" from="-915429557#1" to="154166075#0"/>
    <trip id="moto227" type="moto_motorcycle" depart="266.60" departLane="best" from="153474814#2" to="154295978#2"/>
    <trip id="moto228" type="moto_motorcycle" depart="267.77" departLane="best" from="915811867#1" to="-441354965#0"/>
    <trip id="moto229" type="moto_motorcycle" depart="268.95" departLane="best" from="-205860384#2" to="441354964#4"/>
    <trip id="moto230" type="moto_motorcycle" depart="270.12" departLane="best" from="154797732#5" to="173498516#1"/>
    <trip id="moto231" type="moto_motorcycle" depart="271.30" departLane="best" from="-153474797#3" to="153474811#3"/>
    <trip id="moto232" type="moto_motorcycle" depart="272.47" departLane="best" from="154797732#5" to="169923277#2"/>
    <trip id="moto233" type="moto_motorcycle" depart="273.65" departLane="best" from="-154797767" to="166907800#0"/>
    <trip id="moto234" type="moto_motorcycle" depart="274.82" departLane="best" departSpeed="max" from="154979237#0" to="129213020#5"/>
    <trip id="moto235" type="moto_motorcycle" depart="275.99" departLane="best" from="205860428#1" to="-205860662#5"/>
    <trip id="moto236" type="moto_motorcycle" depart="277.17" departLane="best" from="-205860454#4" to="173550528#8"/>
    <trip id="moto237" type="moto_motorcycle" depart="278.34" departLane="best" from="205860476#10" to="372642301#1"/>
    <trip id="moto238" type="moto_motorcycle" depart="279.52" departLane="best" from="154166106#3" to="570276154#3"/>
    <trip id="moto239" type="moto_motorcycle" depart="280.69" departLane="best" from="154797776#1" to="225052903#5"/>
    <trip id="moto240" type="moto_motorcycle" depart="281.87" departLane="best" from="152907232#2" to="206789198#2"/>
    <trip id="moto241" type="moto_motorcycle" depart="283.04" departLane="best" from="-130883285#0" to="441354964#4"/>
    <trip id="moto242" type="moto_motorcycle" depart="284.22" departLane="best" from="947581040" to="152907141#1"/>
    <trip id="moto243" type="moto_motorcycle" depart="285.39" departLane="best" from="154166060#1" to="205860389#5"/>
    <trip id="moto244" type="moto_motorcycle" depart="286.56" departLane="best" from="-439478173#0" to="154166022#1"/>
    <trip id="moto245" type="moto_motorcycle" depart="287.74" departLane="best" from="153481100#3" to="153474792#4"/>
    <trip id="moto246" type="moto_motorcycle" depart="288.91" departLane="best" from="-154166072#1" to="888777002#3"/>