<?xml version="1.0" encoding="UTF-8"?>

<!-- generated on 2021-06-20 15:40:24 by Eclipse SUMO duarouter Version 1.9.2
<configuration xmlns:xsi="http://www.w3.org/2001/XMLSchema-instance" xsi:noNamespaceSchemaLocation="http://sumo.dlr.de/xsd/duarouterConfiguration.xsd">

    <input>
        <net-file value="/home/diego/PycharmProjects/hadoop-simulation-urban-modbility/2021-06-20-15-40-03/osm.net.xml"/>
        <route-files value="/home/diego/PycharmProjects/hadoop-simulation-urban-modbility/2021-06-20-15-40-03/osm.passenger.trips.xml"/>
    </input>

    <output>
        <output-file value="/home/diego/PycharmProjects/hadoop-simulation-urban-modbility/2021-06-20-15-40-03/osm.passenger.trips.xml.tmp"/>
        <write-trips value="true"/>
    </output>

    <time>
        <begin value="0"/>
        <end value="600"/>
    </time>

    <report>
        <no-warnings value="true"/>
        <ignore-errors value="true"/>
        <no-step-log value="true"/>
    </report>

</configuration>
-->

<routes xmlns:xsi="http://www.w3.org/2001/XMLSchema-instance" xsi:noNamespaceSchemaLocation="http://sumo.dlr.de/xsd/routes_file.xsd">
    <vType id="veh_passenger" vClass="passenger"/>
    <trip id="veh0" type="veh_passenger" depart="0.00" departLane="best" from="169923247#1" to="-130920004#1"/>
    <trip id="veh1" type="veh_passenger" depart="0.39" departLane="best" departSpeed="max" from="-205860392" to="-171309454#1"/>
    <trip id="veh2" type="veh_passenger" depart="0.78" departLane="best" from="205860311#3" to="170773053#4"/>
    <trip id="veh3" type="veh_passenger" depart="1.17" departLane="best" from="373344064" to="-154157949#2"/>
    <trip id="veh4" type="veh_passenger" depart="1.57" departLane="best" from="130883283#2" to="-141650112#3"/>
    <trip id="veh5" type="veh_passenger" depart="1.96" departLane="best" from="-141650072#1" to="-169923316#0"/>
    <trip id="veh6" type="veh_passenger" depart="2.35" departLane="best" from="169923281#1" to="154168232#1"/>
    <trip id="veh7" type="veh_passenger" depart="2.74" departLane="best" from="-171309463#1" to="154797813#0"/>
    <trip id="veh8" type="veh_passenger" depart="3.13" departLane="best" from="205860612#3" to="-130882582#4"/>
    <trip id="veh9" type="veh_passenger" depart="3.52" departLane="best" from="205860564" to="173550588#0"/>
    <trip id="veh10" type="veh_passenger" depart="3.91" departLane="best" from="-225052914#1" to="-154797901#3"/>
    <trip id="veh11" type="veh_passenger" depart="4.31" departLane="best" departSpeed="max" from="570276153#0" to="-225052930#3"/>
    <trip id="veh12" type="veh_passenger" depart="4.70" departLane="best" from="-154166101#7" to="-154166040#6"/>
    <trip id="veh13" type="veh_passenger" depart="5.09" departLane="best" from="225052903#2" to="154797890#4"/>
    <trip id="veh14" type="veh_passenger" depart="5.48" departLane="best" from="205860581" to="205860311#11"/>
    <trip id="veh15" type="veh_passenger" depart="5.87" departLane="best" from="154166074#0" to="888777002#0"/>
    <trip id="veh16" type="veh_passenger" depart="6.26" departLane="best" from="-446749128#8" to="154295978#1"/>
    <trip id="veh17" type="veh_passenger" depart="6.66" departLane="best" from="206785661#1" to="154979265"/>
    <trip id="veh18" type="veh_passenger" depart="7.05" departLane="best" departSpeed="max" from="225052928#0" to="154797759#0"/>
    <trip id="veh19" type="veh_passenger" depart="7.44" departLane="best" from="191519125#1" to="-152907402#3"/>
    <trip id="veh20" type="veh_passenger" depart="7.83" departLane="best" from="-173550588#0" to="-205860460#3"/>
    <trip id="veh21" type="veh_passenger" depart="8.22" departLane="best" from="-154166035#7" to="-173550588#2"/>
    <trip id="veh22" type="veh_passenger" depart="8.61" departLane="best" from="-154168197" to="-205860410#0"/>
    <trip id="veh24" type="veh_passenger" depart="9.40" departLane="best" from="-441354964#5" to="-169923332#0"/>
    <trip id="veh25" type="veh_passenger" depart="9.79" departLane="best" from="169923277#2" to="154880303#2"/>
    <trip id="veh26" type="veh_passenger" depart="10.18" departLane="best" from="-154979269#1" to="205860311#10"/>
    <trip id="veh27" type="veh_passenger" depart="10.57" departLane="best" from="-154979230" to="-512706847"/>
    <trip id="veh28" type="veh_passenger" depart="10.96" departLane="best" from="915811867#1" to="162945054#0"/>
    <trip id="veh29" type="veh_passenger" depart="11.35" departLane="best" from="154295978#2" to="171309454#0"/>
    <trip id="veh30" type="veh_passenger" depart="11.74" departLane="best" from="206785706#1" to="205860400#4"/>
    <trip id="veh31" type="veh_passenger" depart="12.14" departLane="best" from="-173550588#4" to="-141650113#3"/>
    <trip id="veh32" type="veh_passenger" depart="12.53" departLane="best" from="-205860672#8" to="-205860387#1"/>
    <trip id="veh33" type="veh_passenger" depart="12.92" departLane="best" from="-170773053#5" to="512706849#1"/>
    <trip id="veh34" type="veh_passenger" depart="13.31" departLane="best" from="247366415#2" to="-206785663#1"/>
    <trip id="veh35" type="veh_passenger" depart="13.70" departLane="best" departSpeed="max" from="169923310" to="-570276161"/>
    <trip id="veh36" type="veh_passenger" depart="14.09" departLane="best" from="441354964#5" to="152850233#15"/>
    <trip id="veh37" type="veh_passenger" depart="14.48" departLane="best" from="-205860382#1" to="-205860305#0"/>
    <trip id="veh38" type="veh_passenger" depart="14.88" departLane="best" from="154305445#1" to="-205860381#0"/>
    <trip id="veh39" type="veh_passenger" depart="15.27" departLane="best" from="154797778" to="368167200#2"/>
    <trip id="veh40" type="veh_passenger" depart="15.66" departLane="best" from="-914645160#0" to="-171309450#0"/>
    <trip id="veh41" type="veh_passenger" depart="16.05" departLane="best" from="923237983" to="154157948#1"/>
    <trip id="veh42" type="veh_passenger" depart="16.44" departLane="best" from="-154166101#1" to="-153474792#0"/>
    <trip id="veh43" type="veh_passenger" depart="16.83" departLane="best" from="-154247168#2" to="155035501#0"/>
    <trip id="veh44" type="veh_passenger" depart="17.23" departLane="best" from="205860474#5" to="130882582#4"/>
    <trip id="veh45" type="veh_passenger" depart="17.62" departLane="best" from="-153481113#0" to="-512706849#0"/>
    <trip id="veh46" type="veh_passenger" depart="18.01" departLane="best" from="915811868" to="154166101#1"/>
    <trip id="veh47" type="veh_passenger" depart="18.40" departLane="best" departSpeed="max" from="665479102" to="222977821"/>
    <trip id="veh48" type="veh_passenger" depart="18.79" departLane="best" from="-130883283#2" to="205860272#2"/>
    <trip id="veh49" type="veh_passenger" depart="19.18" departLane="best" from="171309454#1" to="154168190#2"/>
    <trip id="veh50" type="veh_passenger" depart="19.57" departLane="best" from="-205860384#2" to="165885103#1"/>
    <trip id="veh51" type="veh_passenger" depart="19.97" departLane="best" departSpeed="max" from="-154247169#3" to="130919997"/>
    <trip id="veh52" type="veh_passenger" depart="20.36" departLane="best" departSpeed="max" from="152850233#0" to="570276149#2"/>
    <trip id="veh53" type="veh_passenger" depart="20.75" departLane="best" departSpeed="max" from="247366415#0" to="-205860381#3"/>
    <trip id="veh54" type="veh_passenger" depart="21.14" departLane="best" departSpeed="max" from="153481120#0" to="-155445053#0"/>
    <trip id="veh55" type="veh_passenger" depart="21.53" departLane="best" from="441225646#0" to="225052923#8"/>
    <trip id="veh56" type="veh_passenger" depart="21.92" departLane="best" from="-205860463#2" to="161884210#4"/>
    <trip id="veh57" type="veh_passenger" depart="22.31" departLane="best" departSpeed="max" from="154979258#0" to="-154797888#2"/>
    <trip id="veh58" type="veh_passenger" depart="22.71" departLane="best" from="205860389#1" to="154168218#0"/>
    <trip id="veh59" type="veh_passenger" depart="23.10" departLane="best" from="205860443#3" to="154166101#10"/>
    <trip id="veh60" type="veh_passenger" depart="23.49" departLane="best" from="-129213020#2" to="-206785681#7"/>
    <trip id="veh61" type="veh_passenger" depart="23.88" departLane="best" from="-130920000#5" to="443089212"/>
    <trip id="veh62" type="veh_passenger" depart="24.27" departLane="best" from="259262954#2" to="205860669#4"/>
    <trip id="veh63" type="veh_passenger" depart="24.66" departLane="best" from="-205860612#2" to="-153474814#4"/>
    <trip id="veh64" type="veh_passenger" depart="25.05" departLane="best" from="259262954#0" to="527267087#13"/>
    <trip id="veh65" type="veh_passenger" depart="25.45" departLane="best" from="-154166072#1" to="153474816"/>
    <trip id="veh66" type="veh_passenger" depart="25.84" departLane="best" from="-154157927" to="205860374#1"/>
    <trip id="veh67" type="veh_passenger" depart="26.23" departLane="best" from="205860391" to="-154797681#0"/>
    <trip id="veh68" type="veh_passenger" depart="26.62" departLane="best" from="153047125#2" to="154247169#3"/>
    <trip id="veh69" type="veh_passenger" depart="27.01" departLane="best" departSpeed="max" from="-205860382#2" to="225052925#2"/>
    <trip id="veh70" type="veh_passenger" depart="27.40" departLane="best" from="130883284#2" to="-170773053#0"/>
    <trip id="veh71" type="veh_passenger" depart="27.80" departLane="best" from="154166101#7" to="205860311#11"/>
    <trip id="veh72" type="veh_passenger" depart="28.19" departLane="best" from="-169923311#3" to="-206785643#2"/>
    <trip id="veh73" type="veh_passenger" depart="28.58" departLane="best" from="915811867#8" to="169923245#1"/>
    <trip id="veh74" type="veh_passenger" depart="28.97" departLane="best" from="130920004#1" to="154166035#7"/>
    <trip id="veh75" type="veh_passenger" depart="29.36" departLane="best" from="-154797679#5" to="-171309463#1"/>
    <trip id="veh76" type="veh_passenger" depart="29.75" departLane="best" from="-225052909#4" to="154797807#1"/>
    <trip id="veh77" type="veh_passenger" depart="30.14" departLane="best" from="-173550588#8" to="-171309451#1"/>
    <trip id="veh78" type="veh_passenger" depart="30.54" departLane="best" from="-154157939#2" to="155035532"/>
    <trip id="veh79" type="veh_passenger" depart="30.93" departLane="best" from="-173550588#4" to="380091877#2"/>
    <trip id="veh80" type="veh_passenger" depart="31.32" departLane="best" from="225052925#8" to="-153481120#0"/>
    <trip id="veh81" type="veh_passenger" depart="31.71" departLane="best" departSpeed="max" from="-205530112#1" to="169923312"/>
    <trip id="veh82" type="veh_passenger" depart="32.10" departLane="best" from="-171309448#6" to="-154797696#0"/>
    <trip id="veh83" type="veh_passenger" depart="32.49" departLane="best" departSpeed="max" from="512706847" to="154797730#2"/>
    <trip id="veh84" type="veh_passenger" depart="32.88" departLane="best" from="152907362#0" to="205860425#5"/>
    <trip id="veh85" type="veh_passenger" depart="33.28" departLane="best" from="205860588" to="-169923277#4"/>
    <trip id="veh86" type="veh_passenger" depart="33.67" departLane="best" from="-154166106#3" to="130886846#1"/>
    <trip id="veh87" type="veh_passenger" depart="34.06" departLane="best" from="130883285#1" to="152907255#6"/>
    <trip id="veh88" type="veh_passenger" depart="34.45" departLane="best" from="205860311#13" to="169923328#3"/>
    <trip id="veh89" type="veh_passenger" depart="34.84" departLane="best" from="915429558#1" to="-154166059#0"/>
    <trip id="veh90" type="veh_passenger" depart="35.23" departLane="best" from="-915429558#1" to="-235767098#0"/>
    <trip id="veh91" type="veh_passenger" depart="35.62" departLane="best" departSpeed="max" from="225052928#0" to="-205860341#0"/>
    <trip id="veh92" type="veh_passenger" depart="36.02" departLane="best" departSpeed="max" from="-169923266#2" to="141650107#3"/>
    <trip id="veh93" type="veh_passenger" depart="36.41" departLane="best" from="130883283#2" to="-205860411#0"/>
    <trip id="veh94" type="veh_passenger" depart="36.80" departLane="best" from="-205860359#3" to="439478173#2"/>
    <trip id="veh95" type="veh_passenger" depart="37.19" departLane="best" from="141650107#1" to="225052903#1"/>
    <trip id="veh96" type="veh_passenger" depart="37.58" departLane="best" departSpeed="max" from="154247168#0" to="-153474797#10"/>
    <trip id="veh97" type="veh_passenger" depart="37.97" departLane="best" from="926532046" to="205860673#5"/>
    <trip id="veh98" type="veh_passenger" depart="38.37" departLane="best" departSpeed="max" from="665479101" to="441354964#6"/>
    <trip id="veh99" type="veh_passenger" depart="38.76" departLane="best" from="225052903#7" to="-154979267#3"/>
    <trip id="veh100" type="veh_passenger" depart="39.15" departLane="best" from="153474811#4" to="-170773053#4"/>
    <trip id="veh101" type="veh_passenger" depart="39.54" departLane="best" departSpeed="max" from="-915429556#1" to="-153474818#0"/>
    <trip id="veh102" type="veh_passenger" depart="39.93" departLane="best" from="-460223841#0" to="915689634#0"/>
    <trip id="veh103" type="veh_passenger" depart="40.32" departLane="best" departSpeed="max" from="-205860382#2" to="205860425#3"/>
    <trip id="veh104" type="veh_passenger" depart="40.71" departLane="best" from="152850233#11" to="130882583#3"/>
    <trip id="veh105" type="veh_passenger" depart="41.11" departLane="best" departSpeed="max" from="570276153#0" to="91885090"/>
    <trip id="veh106" type="veh_passenger" depart="41.50" departLane="best" from="-154797882#2" to="-205860475#1"/>
    <trip id="veh107" type="veh_passenger" depart="41.89" departLane="best" departSpeed="max" from="665479101" to="154797774"/>
    <trip id="veh108" type="veh_passenger" depart="42.28" departLane="best" from="154166105#6" to="205860360#2"/>
    <trip id="veh109" type="veh_passenger" depart="42.67" departLane="best" departSpeed="max" from="-153481090#3" to="154797798#1"/>
    <trip id="veh110" type="veh_passenger" depart="43.06" departLane="best" from="154154165#4" to="206785681#3"/>
    <trip id="veh111" type="veh_passenger" depart="43.45" departLane="best" from="-154797888#3" to="570276159#1"/>
    <trip id="veh112" type="veh_passenger" depart="43.85" departLane="best" from="-154166040#0" to="-169923270#1"/>
    <trip id="veh113" type="veh_passenger" depart="44.24" departLane="best" from="154797888#1" to="169923334#2"/>
    <trip id="veh114" type="veh_passenger" depart="44.63" departLane="best" from="-191519140#1" to="-154247175"/>
    <trip id="veh116" type="veh_passenger" depart="45.41" departLane="best" from="154797882#3" to="154979267#3"/>
    <trip id="veh117" type="veh_passenger" depart="45.80" departLane="best" from="130883281#2" to="154797798#1"/>
    <trip id="veh120" type="veh_passenger" depart="46.98" departLane="best" from="170773053#2" to="-205860566"/>
    <trip id="veh121" type="veh_passenger" depart="47.37" departLane="best" from="-205860675#2" to="205860362"/>
    <trip id="veh122" type="veh_passenger" depart="47.76" departLane="best" from="-154157948#1" to="152850233#14"/>
    <trip id="veh123" type="veh_passenger" depart="48.15" departLane="best" from="924066530" to="919109807"/>
    <trip id="veh124" type="veh_passenger" depart="48.54" departLane="best" departSpeed="max" from="-205860382#2" to="444491948#1"/>
    <trip id="veh125" type="veh_passenger" depart="48.94" departLane="best" from="29011863#0" to="235423764"/>
    <trip id="veh126" type="veh_passenger" depart="49.33" departLane="best" from="-441354964#2" to="-154979235#1"/>
    <trip id="veh127" type="veh_passenger" depart="49.72" departLane="best" from="206785665#4" to="191519108#2"/>
    <trip id="veh128" type="veh_passenger" depart="50.11" departLane="best" from="154979265" to="915811867#1"/>
    <trip id="veh129" type="veh_passenger" depart="50.50" departLane="best" from="169923300" to="-130882583#4"/>
    <trip id="veh130" type="veh_passenger" depart="50.89" departLane="best" departSpeed="max" from="205860668#0" to="-205860558"/>
    <trip id="veh131" type="veh_passenger" depart="51.28" departLane="best" departSpeed="max" from="169923328#0" to="460223841#2"/>
    <trip id="veh132" type="veh_passenger" depart="51.68" departLane="best" from="-154797776#0" to="-154247168#1"/>
    <trip id="veh133" type="veh_passenger" depart="52.07" departLane="best" departSpeed="max" from="-154168232#1" to="154295978#4"/>
    <trip id="veh134" type="veh_passenger" depart="52.46" departLane="best" from="-205860389#4" to="154797901#3"/>
    <trip id="veh135" type="veh_passenger" depart="52.85" departLane="best" from="205860273#2" to="-169923326#0"/>
    <trip id="veh136" type="veh_passenger" depart="53.24" departLane="best" from="166907800#2" to="-205860382#1"/>
    <trip id="veh137" type="veh_passenger" depart="53.63" departLane="best" departSpeed="max" from="153474818#0" to="380091877#1"/>
    <trip id="veh138" type="veh_passenger" depart="54.02" departLane="best" from="222976358#0" to="-154166029"/>
    <trip id="veh139" type="veh_passenger" depart="54.42" departLane="best" from="130883285#1" to="-205860401#1"/>
    <trip id="veh140" type="veh_passenger" depart="54.81" departLane="best" from="-130877766" to="205860390"/>
    <trip id="veh141" type="veh_passenger" depart="55.20" departLane="best" from="169359373#1" to="-205860374#0"/>
    <trip id="veh142" type="veh_passenger" depart="55.59" departLane="best" from="205860341#0" to="154295978#0"/>
    <trip id="veh143" type="veh_passenger" depart="55.98" departLane="best" from="130888854" to="-130883282#0"/>
    <trip id="veh144" type="veh_passenger" depart="56.37" departLane="best" from="-154166023#4" to="235423817#3"/>
    <trip id="veh145" type="veh_passenger" depart="56.76" departLane="best" departSpeed="max" from="380698884#0" to="154168232#1"/>
    <trip id="veh146" type="veh_passenger" depart="57.16" departLane="best" from="206785669#3" to="154797790"/>
    <trip id="veh147" type="veh_passenger" depart="57.55" departLane="best" from="-154797835#1" to="-154797679#6"/>
    <trip id="veh148" type="veh_passenger" depart="57.94" departLane="best" from="-205860612#5" to="368167200#6"/>
    <trip id="veh149" type="veh_passenger" depart="58.33" departLane="best" from="205860476#9" to="222977821"/>
    <trip id="veh150" type="veh_passenger" depart="58.72" departLane="best" from="380698877#4" to="-169923332#2"/>
    <trip id="veh151" type="veh_passenger" depart="59.11" departLane="best" from="-205860359#2" to="-154166090#1"/>
    <trip id="veh152" type="veh_passenger" depart="59.51" departLane="best" departSpeed="max" from="205860454#0" to="245665881#2"/>
    <trip id="veh153" type="veh_passenger" depart="59.90" departLane="best" from="-917362968" to="154979267#4"/>
    <trip id="veh154" type="veh_passenger" depart="60.29" departLane="best" from="-154797882#1" to="443089212"/>
    <trip id="veh155" type="veh_passenger" depart="60.68" departLane="best" from="225052932" to="888777002#4"/>
    <trip id="veh156" type="veh_passenger" depart="61.07" departLane="best" from="205860643" to="235423797#2"/>
    <trip id="veh157" type="veh_passenger" depart="61.46" departLane="best" from="-130920003#3" to="205860311#21"/>
    <trip id="veh158" type="veh_passenger" depart="61.85" departLane="best" from="-206785681#4" to="444306144#1"/>
    <trip id="veh159" type="veh_passenger" depart="62.25" departLane="best" from="205860534#9" to="225052909#1"/>
    <trip id="veh160" type="veh_passenger" depart="62.64" departLane="best" from="205860643" to="-205860387#0"/>
    <trip id="veh161" type="veh_passenger" depart="63.03" departLane="best" from="205860461#5" to="-154166106#4"/>
    <trip id="veh162" type="veh_passenger" depart="63.42" departLane="best" from="245665881#1" to="206789198#3"/>
    <trip id="veh163" type="veh_passenger" depart="63.81" departLane="best" departSpeed="max" from="-173498516#3" to="205860568"/>
    <trip id="veh164" type="veh_passenger" depart="64.20" departLane="best" from="152907141#4" to="-205860662#5"/>
    <trip id="veh165" type="veh_passenger" depart="64.59" departLane="best" from="205860476#6" to="-173550537"/>
    <trip id="veh166" type="veh_passenger" depart="64.99" departLane="best" from="-130920002#4" to="-169923282#3"/>
    <trip id="veh167" type="veh_passenger" depart="65.38" departLane="best" from="-206785675#0" to="225052909#2"/>
    <trip id="veh168" type="veh_passenger" depart="65.77" departLane="best" departSpeed="max" from="62279855#0" to="-205860418#0"/>
    <trip id="veh169" type="veh_passenger" depart="66.16" departLane="best" from="169923250#0" to="-585460308#4"/>
    <trip id="veh170" type="veh_passenger" depart="66.55" departLane="best" from="914645160#2" to="154168190#2"/>
    <trip id="veh171" type="veh_passenger" depart="66.94" departLane="best" from="512706850#1" to="-154247168#1"/>
    <trip id="veh172" type="veh_passenger" depart="67.33" departLane="best" departSpeed="max" from="665479102" to="-155445053#0"/>
    <trip id="veh173" type="veh_passenger" depart="67.73" departLane="best" from="570276163#0" to="-205860384#5"/>
    <trip id="veh174" type="veh_passenger" depart="68.12" departLane="best" from="-154247166#1" to="130919997"/>
    <trip id="veh175" type="veh_passenger" depart="68.51" departLane="best" from="205860311#12" to="-206785661#1"/>
    <trip id="veh176" type="veh_passenger" depart="68.90" departLane="best" from="154979245" to="154166023#1"/>
    <trip id="veh177" type="veh_passenger" depart="69.29" departLane="best" from="-570276151#2" to="154797741"/>
    <trip id="veh178" type="veh_passenger" depart="69.68" departLane="best" departSpeed="max" from="-205860362" to="191519125#3"/>
    <trip id="veh179" type="veh_passenger" depart="70.08" departLane="best" from="-129213020#6" to="441354964#3"/>
    <trip id="veh181" type="veh_passenger" depart="70.86" departLane="best" from="205860353#0" to="169923316#1"/>
    <trip id="veh182" type="veh_passenger" depart="71.25" departLane="best" from="-380698887#0" to="-153481120#0"/>
    <trip id="veh183" type="veh_passenger" depart="71.64" departLane="best" departSpeed="max" from="169923328#0" to="-225052914#1"/>
    <trip id="veh184" type="veh_passenger" depart="72.03" departLane="best" from="-205860672#1" to="206785674#3"/>
    <trip id="veh185" type="veh_passenger" depart="72.42" departLane="best" departSpeed="max" from="205860294#0" to="-205860582"/>
    <trip id="veh186" type="veh_passenger" depart="72.82" departLane="best" from="-205860644" to="-915429556#0"/>
    <trip id="veh187" type="veh_passenger" depart="73.21" departLane="best" from="-915429558#0" to="-205860474#4"/>
    <trip id="veh188" type="veh_passenger" depart="73.60" departLane="best" from="-154797715#9" to="130882581#2"/>
    <trip id="veh189" type="veh_passenger" depart="73.99" departLane="best" from="527267087#1" to="171309448#0"/>
    <trip id="veh190" type="veh_passenger" depart="74.38" departLane="best" from="-205860474#6" to="154247168#3"/>
    <trip id="veh191" type="veh_passenger" depart="74.77" departLane="best" from="-129213020#1" to="-205860455#0"/>
    <trip id="veh192" type="veh_passenger" depart="75.16" departLane="best" from="130919998#0" to="154797778"/>
    <trip id="veh193" type="veh_passenger" depart="75.56" departLane="best" departSpeed="max" from="169923310" to="152907240"/>
    <trip id="veh194" type="veh_passenger" depart="75.95" departLane="best" from="141650083" to="-170773053#4"/>
    <trip id="veh195" type="veh_passenger" depart="76.34" departLane="best" from="152907362#2" to="373344064"/>
    <trip id="veh196" type="veh_passenger" depart="76.73" departLane="best" from="205860476#9" to="-154979278#2"/>
    <trip id="veh197" type="veh_passenger" depart="77.12" departLane="best" from="-154166066#0" to="154166025#4"/>
    <trip id="veh198" type="veh_passenger" depart="77.51" departLane="best" from="166907800#1" to="-225052928#0"/>
    <trip id="veh199" type="veh_passenger" depart="77.90" departLane="best" from="171309448#0" to="-171309463#1"/>
    <trip id="veh200" type="veh_passenger" depart="78.30" departLane="best" from="-169923288#1" to="-130920003#2"/>
    <trip id="veh201" type="veh_passenger" depart="78.69" departLane="best" departSpeed="max" from="-205860341#3" to="152907402#4"/>
    <trip id="veh202" type="veh_passenger" depart="79.08" departLane="best" from="225052909#1" to="-154157905"/>
    <trip id="veh203" type="veh_passenger" depart="79.47" departLane="best" from="130877767#1" to="155035510"/>
    <trip id="veh204" type="veh_passenger" depart="79.86" departLane="best" departSpeed="max" from="-169923277#9" to="173550572"/>
    <trip id="veh205" type="veh_passenger" depart="80.25" departLane="best" from="153481100#1" to="-205530112#0"/>
    <trip id="veh206" type="veh_passenger" depart="80.65" departLane="best" from="169923311#1" to="-130882582#0"/>
    <trip id="veh207" type="veh_passenger" depart="81.04" departLane="best" from="205860367#6" to="205860389#6"/>
    <trip id="veh208" type="veh_passenger" depart="81.43" departLane="best" from="-154168232#0" to="130883282#0"/>
    <trip id="veh209" type="veh_passenger" depart="81.82" departLane="best" from="-155035488#0" to="570276153#2"/>
    <trip id="veh210" type="veh_passenger" depart="82.21" departLane="best" from="154157941#1" to="-153474797#0"/>
    <trip id="veh211" type="veh_passenger" depart="82.60" departLane="best" from="-205860359#1" to="206785674#3"/>
    <trip id="veh212" type="veh_passenger" depart="82.99" departLane="best" from="152850233#15" to="205860474#5"/>
    <trip id="veh213" type="veh_passenger" depart="83.39" departLane="best" departSpeed="max" from="169923332#0" to="915811867#2"/>
    <trip id="veh214" type="veh_passenger" depart="83.78" departLane="best" from="154797888#2" to="527267087#6"/>
    <trip id="veh215" type="veh_passenger" depart="84.17" departLane="best" from="372642301#0" to="154979230"/>
    <trip id="veh216" type="veh_passenger" depart="84.56" departLane="best" departSpeed="max" from="205860294#0" to="154157918#4"/>
    <trip id="veh217" type="veh_passenger" depart="84.95" departLane="best" from="206785663#2" to="154247168#3"/>
    <trip id="veh218" type="veh_passenger" depart="85.34" departLane="best" from="380698877#0" to="205860341#2"/>
    <trip id="veh219" type="veh_passenger" depart="85.73" departLane="best" from="153047125#0" to="-205860368#2"/>
    <trip id="veh220" type="veh_passenger" depart="86.13" departLane="best" departSpeed="max" from="-205860352" to="159803128#1"/>
    <trip id="veh221" type="veh_passenger" depart="86.52" departLane="best" from="205860391" to="154166057#2"/>
    <trip id="veh222" type="veh_passenger" depart="86.91" departLane="best" departSpeed="max" from="155445053#0" to="-205860399#1"/>
    <trip id="veh223" type="veh_passenger" depart="87.30" departLane="best" from="-154166025#4" to="-205860454#4"/>
    <trip id="veh224" type="veh_passenger" depart="87.69" departLane="best" from="-205860389#2" to="-206785672#5"/>
    <trip id="veh225" type="veh_passenger" depart="88.08" departLane="best" from="154166104#0" to="-154797739"/>
    <trip id="veh226" type="veh_passenger" depart="88.47" departLane="best" from="-191519125#3" to="173550550"/>
    <trip id="veh227" type="veh_passenger" depart="88.87" departLane="best" from="191519126#1" to="-153481097"/>
    <trip id="veh228" type="veh_passenger" depart="89.26" departLane="best" departSpeed="max" from="-917362969" to="154168227#0"/>
    <trip id="veh229" type="veh_passenger" depart="89.65" departLane="best" from="130882581#3" to="-169923331#0"/>
    <trip id="veh230" type="veh_passenger" depart="90.04" departLane="best" from="130883282#0" to="380010054#1"/>
    <trip id="veh231" type="veh_passenger" depart="90.43" departLane="best" from="154797776#0" to="173550564#0"/>
    <trip id="veh232" type="veh_passenger" depart="90.82" departLane="best" from="225052923#9" to="205860386#1"/>
    <trip id="veh233" type="veh_passenger" depart="91.22" departLane="best" from="-460223841#6" to="-130882582#2"/>
    <trip id="veh234" type="veh_passenger" depart="91.61" departLane="best" from="-259262945" to="205860365#11"/>
    <trip id="veh235" type="veh_passenger" depart="92.00" departLane="best" from="225052914#1" to="570276149#1"/>
    <trip id="veh236" type="veh_passenger" depart="92.39" departLane="best" from="130883281#1" to="205860360#0"/>
    <trip id="veh237" type="veh_passenger" depart="92.78" departLane="best" from="154168222#0" to="154797890#2"/>
    <trip id="veh238" type="veh_passenger" depart="93.17" departLane="best" from="-171309464#1" to="-171309450#0"/>
    <trip id="veh239" type="veh_passenger" depart="93.56" departLane="best" from="130920002#1" to="-141650112#0"/>
    <trip id="veh240" type="veh_passenger" depart="93.96" departLane="best" from="-222977822#0" to="171309448#2"/>
    <trip id="veh241" type="veh_passenger" depart="94.35" departLane="best" from="-915447945#2" to="-154979262#1"/>
    <trip id="veh242" type="veh_passenger" depart="94.74" departLane="best" from="152907293#1" to="-154797679#7"/>
    <trip id="veh243" type="veh_passenger" depart="95.13" departLane="best" from="155035525#0" to="-141650072#3"/>
    <trip id="veh244" type="veh_passenger" depart="95.52" departLane="best" departSpeed="max" from="-570276163#2" to="154797679#9"/>
    <trip id="veh245" type="veh_passenger" depart="95.91" departLane="best" from="-141650072#3" to="166907800#1"/>
    <trip id="veh246" type="veh_passenger" depart="96.30" departLane="best" departSpeed="max" from="-154797779#1" to="152907141#2"/>
    <trip id="veh247" type="veh_passenger" depart="96.70" departLane="best" from="-153474797#9" to="-512705363"/>
    <trip id="veh248" type="veh_passenger" depart="97.09" departLane="best" from="-171309448#1" to="-225052909#0"/>
    <trip id="veh249" type="veh_passenger" depart="97.48" departLane="best" from="205860368#3" to="205860669#4"/>
    <trip id="veh250" type="veh_passenger" depart="97.87" departLane="best" departSpeed="max" from="-205860361#7" to="-154157939#1"/>