<?xml version="1.0" encoding="UTF-8"?>

<!-- generated on 2021-05-26 08:21:44 by Eclipse SUMO netconvert Version 1.9.2
<configuration xmlns:xsi="http://www.w3.org/2001/XMLSchema-instance" xsi:noNamespaceSchemaLocation="http://sumo.dlr.de/xsd/netconvertConfiguration.xsd">

    <input>
        <type-files value="/usr/share/sumo/data/typemap/osmNetconvert.typ.xml,/usr/share/sumo/data/typemap/osmNetconvertUrbanDe.typ.xml,/usr/share/sumo/data/typemap/osmNetconvertPedestrians.typ.xml,/usr/share/sumo/data/typemap/osmNetconvertBicycle.typ.xml"/>
        <osm-files value="osm_bbox.osm.xml"/>
    </input>

    <output>
        <output-file value="osm.net.xml"/>
        <output.street-names value="true"/>
        <output.original-names value="true"/>
        <ptstop-output value="osm_stops.add.xml"/>
        <ptline-output value="osm_ptlines.xml"/>
    </output>

    <projection>
        <proj.utm value="true"/>
    </projection>

    <processing>
        <geometry.remove value="true"/>
        <roundabouts.guess value="true"/>
    </processing>

    <tls_building>
        <tls.discard-simple value="true"/>
        <tls.join value="true"/>
        <tls.guess-signals value="true"/>
        <tls.default-type value="actuated"/>
    </tls_building>

    <ramp_guessing>
        <ramps.guess value="true"/>
    </ramp_guessing>

    <junctions>
        <junctions.join value="true"/>
        <junctions.corner-detail value="5"/>
    </junctions>

    <pedestrian>
        <crossings.guess value="true"/>
    </pedestrian>

    <railway>
        <railway.topology.repair value="true"/>
        <railway.topology.repair.stop-turn value="true"/>
    </railway>

    <report>
        <verbose value="true"/>
        <aggregate-warnings value="5"/>
    </report>

</configuration>
-->

<net version="1.9" junctionCornerDetail="5" walkingareas="true" limitTurnSpeed="5.50" xmlns:xsi="http://www.w3.org/2001/XMLSchema-instance" xsi:noNamespaceSchemaLocation="http://sumo.dlr.de/xsd/net_file.xsd">

    <location netOffset="-747817.51,2268642.18" convBoundary="0.00,0.00,2534.63,3221.38" origBoundary="-54.624190,-20.500175,-54.597016,-20.471126" projParameter="+proj=utm +zone=21 +ellps=WGS84 +datum=WGS84 +units=m +no_defs"/>

    <type id="cycleway.lane" allow="bicycle" bikeLaneWidth="1.00"/>
    <type id="cycleway.opposite_lane" allow="bicycle" bikeLaneWidth="1.00"/>
    <type id="cycleway.opposite_track" allow="bicycle" bikeLaneWidth="1.50"/>
    <type id="cycleway.track" allow="bicycle" bikeLaneWidth="1.50"/>
    <type id="cycleway.track|highway.primary" priority="12" numLanes="2" speed="13.89" disallow="pedestrian tram rail_urban rail rail_electric rail_fast ship" oneway="0" sidewalkWidth="3.00" bikeLaneWidth="1.50"/>
    <type id="cycleway.track|highway.secondary" priority="11" numLanes="1" speed="13.89" disallow="pedestrian tram rail_urban rail rail_electric rail_fast ship" oneway="0" sidewalkWidth="3.00" bikeLaneWidth="1.50"/>
    <type id="highway.bridleway" priority="1" numLanes="1" speed="2.78" allow="pedestrian" oneway="1" width="2.00"/>
    <type id="highway.bus_guideway" priority="1" numLanes="1" speed="13.89" allow="bus" oneway="1"/>
    <type id="highway.cycleway" priority="1" numLanes="1" speed="8.33" allow="bicycle" oneway="0" width="1.00"/>
    <type id="highway.footway" priority="1" numLanes="1" speed="2.78" allow="pedestrian" oneway="1" width="2.00"/>
    <type id="highway.ford" priority="1" numLanes="1" speed="2.78" allow="army" oneway="0"/>
    <type id="highway.living_street" priority="2" numLanes="1" speed="2.78" disallow="tram rail_urban rail rail_electric rail_fast ship" oneway="0"/>
    <type id="highway.motorway" priority="14" numLanes="2" speed="27.78" allow="private emergency authority army vip passenger hov taxi bus coach delivery truck trailer motorcycle evehicle custom1 custom2" oneway="1"/>
    <type id="highway.motorway_link" priority="9" numLanes="1" speed="16.67" allow="private emergency authority army vip passenger hov taxi bus coach delivery truck trailer motorcycle evehicle custom1 custom2" oneway="1"/>
    <type id="highway.path" priority="1" numLanes="1" speed="2.78" allow="pedestrian bicycle" oneway="0" width="2.00"/>
    <type id="highway.pedestrian" priority="1" numLanes="1" speed="2.78" allow="pedestrian" oneway="1" width="2.00"/>
    <type id="highway.primary" priority="12" numLanes="2" speed="13.89" disallow="pedestrian tram rail_urban rail rail_electric rail_fast ship" oneway="0" sidewalkWidth="3.00"/>
    <type id="highway.primary_link" priority="7" numLanes="1" speed="13.89" disallow="pedestrian tram rail_urban rail rail_electric rail_fast ship" oneway="0" sidewalkWidth="3.00"/>
    <type id="highway.raceway" priority="15" numLanes="2" speed="83.33" allow="vip" oneway="0"/>
    <type id="highway.residential" priority="3" numLanes="1" speed="13.89" disallow="pedestrian tram rail_urban rail rail_electric rail_fast ship" oneway="0" sidewalkWidth="2.00"/>
    <type id="highway.secondary" priority="11" numLanes="1" speed="13.89" disallow="pedestrian tram rail_urban rail rail_electric rail_fast ship" oneway="0" sidewalkWidth="3.00"/>
    <type id="highway.secondary_link" priority="6" numLanes="1" speed="13.89" disallow="pedestrian tram rail_urban rail rail_electric rail_fast ship" oneway="0" sidewalkWidth="3.00"/>
    <type id="highway.service" priority="1" numLanes="1" speed="5.56" allow="pedestrian delivery bicycle" oneway="0"/>
    <type id="highway.stairs" priority="1" numLanes="1" speed="1.39" allow="pedestrian" oneway="1" width="2.00"/>
    <type id="highway.step" priority="1" numLanes="1" speed="1.39" allow="pedestrian" oneway="1" width="2.00"/>
    <type id="highway.steps" priority="1" numLanes="1" speed="1.39" allow="pedestrian" oneway="1" width="2.00"/>
    <type id="highway.tertiary" priority="10" numLanes="1" speed="13.89" disallow="pedestrian tram rail_urban rail rail_electric rail_fast ship" oneway="0" sidewalkWidth="3.00"/>
    <type id="highway.tertiary_link" priority="5" numLanes="1" speed="13.89" disallow="pedestrian tram rail_urban rail rail_electric rail_fast ship" oneway="0" sidewalkWidth="2.00"/>
    <type id="highway.track" priority="1" numLanes="1" speed="5.56" allow="pedestrian motorcycle moped bicycle" oneway="0"/>
    <type id="highway.trunk" priority="13" numLanes="2" speed="13.89" disallow="pedestrian bicycle tram rail_urban rail rail_electric rail_fast ship" oneway="0"/>
    <type id="highway.trunk_link" priority="8" numLanes="1" speed="13.89" disallow="pedestrian bicycle tram rail_urban rail rail_electric rail_fast ship" oneway="0"/>
    <type id="highway.unclassified" priority="4" numLanes="1" speed="13.89" disallow="pedestrian tram rail_urban rail rail_electric rail_fast ship" oneway="0" sidewalkWidth="2.00"/>
    <type id="highway.unsurfaced" priority="1" numLanes="1" speed="8.33" disallow="tram rail_urban rail rail_electric rail_fast ship" oneway="0"/>
    <type id="railway.highspeed" priority="21" numLanes="1" speed="69.44" allow="rail_fast" oneway="1"/>
    <type id="railway.light_rail" priority="19" numLanes="1" speed="27.78" allow="rail_urban" oneway="1"/>
    <type id="railway.preserved" priority="16" numLanes="1" speed="27.78" allow="rail" oneway="1"/>
    <type id="railway.rail" priority="20" numLanes="1" speed="44.44" allow="rail" oneway="1"/>
    <type id="railway.subway" priority="18" numLanes="1" speed="27.78" allow="rail_urban" oneway="1"/>
    <type id="railway.tram" priority="17" numLanes="1" speed="13.89" allow="tram" oneway="1"/>

    <edge id=":1440540047_0" function="internal">
        <lane id=":1440540047_0_0" index="0" disallow="pedestrian tram rail_urban rail rail_electric rail_fast ship" speed="3.65" length="4.67" shape="1856.89,1290.63 1855.52,1291.07 1854.64,1290.88 1854.27,1290.06 1854.40,1288.63"/>
    </edge>
    <edge id=":1440540047_w0" function="walkingarea">
        <lane id=":1440540047_w0_0" index="0" allow="pedestrian" speed="1.00" length="9.40" width="3.00" shape="1853.15,1287.62 1850.82,1285.74 1860.47,1293.52 1858.14,1291.64"/>
    </edge>
    <edge id=":1440540075_0" function="internal">
        <lane id=":1440540075_0_0" index="0" disallow="pedestrian tram rail_urban rail rail_electric rail_fast ship" speed="6.51" length="9.06" shape="1649.15,425.11 1646.52,425.71 1644.73,426.87 1643.77,428.58 1643.64,430.85"/>
    </edge>
    <edge id=":1440540075_1" function="internal">
        <lane id=":1440540075_1_0" index="0" disallow="pedestrian tram rail_urban rail rail_electric rail_fast ship" speed="13.89" length="9.22" shape="1649.15,425.11 1639.98,426.11"/>
    </edge>
    <edge id=":1440540075_2" function="internal">
        <lane id=":1440540075_2_0" index="0" disallow="pedestrian tram rail_urban rail rail_electric rail_fast ship" speed="3.65" length="4.67" shape="1649.15,425.11 1647.87,424.44 1647.39,423.69 1647.70,422.85 1648.81,421.93"/>
    </edge>
    <edge id=":1440540075_3" function="internal">
        <lane id=":1440540075_3_0" index="0" disallow="pedestrian tram rail_urban rail rail_electric rail_fast ship" speed="6.53" length="4.90" shape="1642.15,417.51 1642.78,419.69 1644.10,421.15 1644.72,421.38"/>
    </edge>
    <edge id=":1440540075_4" function="internal">
        <lane id=":1440540075_4_0" index="0" disallow="pedestrian tram rail_urban rail rail_electric rail_fast ship" speed="13.89" length="13.42" shape="1642.15,417.51 1643.64,430.85"/>
    </edge>
    <edge id=":1440540075_5" function="internal">
        <lane id=":1440540075_5_0" index="0" disallow="pedestrian tram rail_urban rail rail_electric rail_fast ship" speed="6.69" length="9.58" shape="1642.15,417.51 1642.36,421.14 1642.07,423.79 1641.28,425.44 1639.98,426.11"/>
    </edge>
    <edge id=":1440540075_9" function="internal">
        <lane id=":1440540075_9_0" index="0" disallow="pedestrian tram rail_urban rail rail_electric rail_fast ship" speed="6.53" length="4.17" shape="1644.72,421.38 1646.11,421.90 1648.81,421.93"/>
    </edge>
    <edge id=":1440540075_6" function="internal">
        <lane id=":1440540075_6_0" index="0" disallow="pedestrian tram rail_urban rail rail_electric rail_fast ship" speed="13.89" length="9.23" shape="1639.63,422.93 1648.81,421.93"/>
    </edge>
    <edge id=":1440540075_7" function="internal">
        <lane id=":1440540075_7_0" index="0" disallow="pedestrian tram rail_urban rail rail_electric rail_fast ship" speed="6.69" length="9.60" shape="1639.63,422.93 1641.03,423.29 1642.17,424.73 1643.04,427.25 1643.64,430.85"/>
    </edge>
    <edge id=":1440540075_8" function="internal">
        <lane id=":1440540075_8_0" index="0" disallow="pedestrian tram rail_urban rail rail_electric rail_fast ship" speed="3.65" length="4.67" shape="1639.63,422.93 1640.91,423.59 1641.40,424.34 1641.09,425.18 1639.98,426.11"/>
    </edge>
    <edge id=":1440540075_c0" function="crossing" crossingEdges="205860439#1">
        <lane id=":1440540075_c0_0" index="0" allow="pedestrian" speed="1.00" length="3.20" width="4.00" shape="1645.00,428.68 1641.82,429.04"/>
    </edge>
    <edge id=":1440540075_c1" function="crossing" crossingEdges="154979262#2 -154979262#2">
        <lane id=":1440540075_c1_0" index="0" allow="pedestrian" speed="1.00" length="6.40" width="4.00" shape="1646.65,420.55 1647.33,426.91"/>
    </edge>
    <edge id=":1440540075_c2" function="crossing" crossingEdges="205860439#0">
        <lane id=":1440540075_c2_0" index="0" allow="pedestrian" speed="1.00" length="3.20" width="4.00" shape="1640.78,419.68 1643.96,419.32"/>
    </edge>
    <edge id=":1440540075_c3" function="crossing" crossingEdges="-154979262#1 154979262#1">
        <lane id=":1440540075_c3_0" index="0" allow="pedestrian" speed="1.00" length="6.40" width="4.00" shape="1642.15,427.47 1641.43,421.11"/>
    </edge>
    <edge id=":1440540075_w0" function="walkingarea">
        <lane id=":1440540075_w0_0" index="0" allow="pedestrian" speed="1.00" length="3.29" width="4.00" shape="1645.23,430.67 1648.21,430.34 1649.53,428.69 1649.32,426.70 1647.96,426.94 1646.87,427.35 1646.05,427.93 1645.51,428.68 1645.23,429.59"/>
    </edge>
    <edge id=":1440540075_w1" function="walkingarea">
        <lane id=":1440540075_w1_0" index="0" allow="pedestrian" speed="1.00" length="3.31" width="4.00" shape="1648.63,420.33 1648.42,418.35 1646.72,417.00 1643.74,417.34 1643.98,418.39 1644.46,419.22 1645.16,419.83 1646.09,420.22 1647.25,420.39"/>
    </edge>
    <edge id=":1440540075_w2" function="walkingarea">
        <lane id=":1440540075_w2_0" index="0" allow="pedestrian" speed="1.00" length="1.80" width="4.00" shape="1640.56,417.69 1639.22,419.35 1639.45,421.34 1639.89,421.19 1640.24,420.86 1640.48,420.34 1640.61,419.64 1640.64,418.76"/>
    </edge>
    <edge id=":1440540075_w3" function="walkingarea">
        <lane id=":1440540075_w3_0" index="0" allow="pedestrian" speed="1.00" length="1.81" width="4.00" shape="1640.16,427.70 1640.39,429.69 1642.05,431.02 1641.88,429.96 1641.66,429.10 1641.38,428.45 1641.04,427.99 1640.63,427.74"/>
    </edge>
    <edge id=":1440540083_0" function="internal">
        <lane id=":1440540083_0_0" index="0" disallow="pedestrian tram rail_urban rail rail_electric rail_fast ship" speed="6.59" length="9.31" shape="1697.15,839.44 1693.90,837.00 1691.30,836.65 1689.36,838.41"/>
    </edge>
    <edge id=":1440540083_1" function="internal">
        <lane id=":1440540083_1_0" index="0" disallow="pedestrian tram rail_urban rail rail_electric rail_fast ship" speed="13.89" length="18.56" shape="1697.15,839.44 1693.21,835.60 1690.53,832.94 1687.98,830.16 1684.39,825.99"/>
    </edge>
    <edge id=":1440540083_2" function="internal">
        <lane id=":1440540083_2_0" index="0" allow="bicycle" speed="2.93" length="1.10" width="1.50" shape="1697.75,838.84 1697.61,838.18 1697.74,837.78"/>
    </edge>
    <edge id=":1440540083_9" function="internal">
        <lane id=":1440540083_9_0" index="0" disallow="pedestrian tram rail_urban rail rail_electric rail_fast ship" speed="6.59" length="4.07" shape="1689.36,838.41 1688.06,842.26"/>
    </edge>
    <edge id=":1440540083_10" function="internal">
        <lane id=":1440540083_10_0" index="0" allow="bicycle" speed="2.93" length="1.10" width="1.50" shape="1697.74,837.78 1698.13,837.64 1698.80,837.76"/>
    </edge>
    <edge id=":1440540083_3" function="internal">
        <lane id=":1440540083_3_0" index="0" allow="bicycle" speed="11.03" length="15.02" width="1.50" shape="1692.22,824.82 1692.28,827.72 1693.39,830.85 1695.56,834.19 1698.80,837.76"/>
    </edge>
    <edge id=":1440540083_4" function="internal">
        <lane id=":1440540083_4_0" index="0" disallow="pedestrian tram rail_urban rail rail_electric rail_fast ship" speed="13.89" length="17.89" shape="1691.39,824.68 1688.06,842.26"/>
    </edge>
    <edge id=":1440540083_5" function="internal">
        <lane id=":1440540083_5_0" index="0" disallow="pedestrian tram rail_urban rail rail_electric rail_fast ship" speed="5.82" length="10.75" shape="1691.39,824.68 1690.44,827.74 1688.95,828.98 1686.94,828.40 1684.39,825.99"/>
    </edge>
    <edge id=":1440540083_6" function="internal">
        <lane id=":1440540083_6_0" index="0" allow="bicycle" speed="13.89" length="18.34" width="1.50" shape="1686.19,824.47 1689.73,828.59 1692.25,831.34 1694.90,833.97 1698.80,837.76"/>
    </edge>
    <edge id=":1440540083_7" function="internal">
        <lane id=":1440540083_7_0" index="0" allow="bicycle" speed="12.82" length="4.25" shape="1686.19,824.47 1688.26,827.84 1688.34,828.12"/>
    </edge>
    <edge id=":1440540083_8" function="internal">
        <lane id=":1440540083_8_0" index="0" allow="bicycle" speed="3.31" length="1.34" shape="1686.19,824.47 1686.34,825.80"/>
    </edge>
    <edge id=":1440540083_11" function="internal">
        <lane id=":1440540083_11_0" index="0" allow="bicycle" speed="12.82" length="14.50" shape="1688.34,828.12 1689.40,831.96 1689.61,836.82 1688.89,842.43"/>
    </edge>
    <edge id=":1440540083_12" function="internal">
        <lane id=":1440540083_12_0" index="0" allow="bicycle" speed="3.31" length="3.34" shape="1686.34,825.80 1686.35,825.90 1686.00,826.72 1685.13,826.93 1683.74,826.53"/>
    </edge>
    <edge id=":1440540083_c0" function="crossing" crossingEdges="-169923245#2 169923245#2">
        <lane id=":1440540083_c0_0" index="0" allow="pedestrian" speed="1.00" length="4.70" width="4.00" shape="1697.89,835.83 1694.60,839.19"/>
    </edge>
    <edge id=":1440540083_c1" function="crossing" crossingEdges="380091877#1">
        <lane id=":1440540083_c1_0" index="0" allow="pedestrian" speed="1.00" length="3.20" width="4.00" shape="1689.47,826.38 1692.62,826.92"/>
    </edge>
    <edge id=":1440540083_c2" function="crossing" crossingEdges="169923246#0 -169923246#0">
        <lane id=":1440540083_c2_0" index="0" allow="pedestrian" speed="1.00" length="4.70" width="4.00" shape="1684.46,828.55 1688.05,825.51"/>
    </edge>
    <edge id=":1440540083_c3" function="crossing" crossingEdges="380091877#2">
        <lane id=":1440540083_c3_0" index="0" allow="pedestrian" speed="1.00" length="3.20" width="4.00" shape="1690.02,840.61 1686.88,839.99"/>
    </edge>
    <edge id=":1440540083_w0" function="walkingarea">
        <lane id=":1440540083_w0_0" index="0" allow="pedestrian" speed="1.00" length="4.00" width="4.00" shape="1689.63,842.57 1692.57,843.16 1693.94,842.73 1696.03,840.59 1694.46,839.27 1693.08,838.62 1691.92,838.62 1690.95,839.28 1690.19,840.60"/>
    </edge>
    <edge id=":1440540083_w1" function="walkingarea">
        <lane id=":1440540083_w1_0" index="0" allow="pedestrian" speed="1.00" length="8.50" width="4.00" shape="1699.32,837.23 1701.42,835.08 1695.92,825.46 1692.96,824.95 1692.89,826.73 1693.27,828.62 1694.11,830.61 1695.39,832.71 1697.13,834.92"/>
    </edge>
    <edge id=":1440540083_w2" function="walkingarea">
        <lane id=":1440540083_w2_0" index="0" allow="pedestrian" speed="1.00" length="2.63" width="4.00" shape="1689.81,824.41 1689.05,822.04 1686.76,823.98 1687.56,824.85 1688.25,825.39 1688.82,825.62 1689.27,825.54 1689.60,825.13"/>
    </edge>
    <edge id=":1440540083_w3" function="walkingarea">
        <lane id=":1440540083_w3_0" index="0" allow="pedestrian" speed="1.00" length="9.05" width="4.00" shape="1683.17,827.02 1680.88,828.96 1686.49,841.95 1686.89,839.06 1686.91,836.33 1686.54,833.76 1685.80,831.35 1684.68,829.10"/>
    </edge>
    <edge id=":1441112001_0" function="internal">
        <lane id=":1441112001_0_0" index="0" disallow="pedestrian tram rail_urban rail rail_electric rail_fast ship" speed="13.89" length="19.79" shape="1117.93,514.15 1122.76,511.20 1126.15,508.96 1128.61,506.03 1130.66,501.00"/>
        <lane id=":1441112001_0_1" index="1" disallow="pedestrian tram rail_urban rail rail_electric rail_fast ship" speed="13.89" length="19.79" shape="1120.19,516.49 1125.39,513.24 1128.97,510.72 1131.54,507.45 1133.72,501.94"/>
    </edge>
    <edge id=":1441112001_2" function="internal">
        <lane id=":1441112001_2_0" index="0" disallow="pedestrian tram rail_urban rail rail_electric rail_fast ship" speed="13.89" length="18.43" shape="1126.80,519.18 1127.77,513.74 1128.37,510.00 1129.15,506.30 1130.66,501.00"/>
        <lane id=":1441112001_2_1" index="1" disallow="pedestrian tram rail_urban rail rail_electric rail_fast ship" speed="13.89" length="18.43" shape="1129.95,519.79 1130.89,514.44 1131.47,510.77 1132.24,507.15 1133.72,501.94"/>
    </edge>
    <edge id=":1441112001_c0" function="crossing" crossingEdges="380698888#1">
        <lane id=":1441112001_c0_0" index="0" allow="pedestrian" speed="1.00" length="6.43" width="4.00" shape="1122.74,516.72 1118.72,511.71"/>
    </edge>
    <edge id=":1441112001_w0" function="walkingarea">
        <lane id=":1441112001_w0_0" index="0" allow="pedestrian" speed="1.00" length="11.48" width="4.00" shape="1129.13,500.53 1126.26,499.65 1114.92,510.63 1116.57,513.13 1117.16,512.96 1120.27,510.83 1122.81,509.35 1124.84,507.98 1126.47,506.32 1127.85,503.97"/>
    </edge>
    <edge id=":1441112001_w1" function="walkingarea">
        <lane id=":1441112001_w1_0" index="0" allow="pedestrian" speed="1.00" length="2.13" width="4.00" shape="1121.18,517.98 1122.29,518.31 1125.23,518.88 1125.35,517.64 1125.14,516.83 1124.61,516.44 1123.76,516.48 1122.58,516.94"/>
    </edge>
    <edge id=":1442188764_0" function="internal">
        <lane id=":1442188764_0_0" index="0" disallow="pedestrian tram rail_urban rail rail_electric rail_fast ship" speed="3.65" length="4.67" shape="1971.71,2087.45 1970.60,2088.38 1969.72,2088.54 1969.07,2087.93 1968.64,2086.55"/>
    </edge>
    <edge id=":1442188764_w0" function="walkingarea">
        <lane id=":1442188764_w0_0" index="0" allow="pedestrian" speed="1.00" length="8.40" width="2.00" shape="1967.10,2086.10 1965.18,2085.54 1975.16,2088.46 1973.24,2087.90"/>
    </edge>
    <edge id=":1442188781_0" function="internal">
        <lane id=":1442188781_0_0" index="0" disallow="pedestrian tram rail_urban rail rail_electric rail_fast ship" speed="3.65" length="4.67" shape="1709.73,2018.32 1708.69,2019.31 1707.82,2019.52 1707.13,2018.95 1706.61,2017.61"/>
    </edge>
    <edge id=":1442188781_w0" function="walkingarea">
        <lane id=":1442188781_w0_0" index="0" allow="pedestrian" speed="1.00" length="8.40" width="2.00" shape="1705.05,2017.25 1703.10,2016.81 1713.24,2019.12 1711.29,2018.67"/>
    </edge>
    <edge id=":1550539536_0" function="internal">
        <lane id=":1550539536_0_0" index="0" disallow="pedestrian tram rail_urban rail rail_electric rail_fast ship" speed="3.65" length="4.67" shape="2292.76,864.80 2293.72,865.88 2293.91,866.75 2293.32,867.43 2291.96,867.90"/>
    </edge>
    <edge id=":1550539536_w0" function="walkingarea">
        <lane id=":1550539536_w0_0" index="0" allow="pedestrian" speed="1.00" length="8.40" width="2.00" shape="2291.56,869.45 2291.06,871.39 2293.66,861.32 2293.16,863.26"/>
    </edge>
    <edge id=":1550539582_0" function="internal">
        <lane id=":1550539582_0_0" index="0" disallow="pedestrian tram rail_urban rail rail_electric rail_fast ship" speed="7.45" length="5.23" shape="2051.25,791.87 2049.23,791.05 2047.14,791.03 2046.23,791.36"/>
    </edge>
    <edge id=":1550539582_1" function="internal">
        <lane id=":1550539582_1_0" index="0" disallow="pedestrian tram rail_urban rail rail_electric rail_fast ship" speed="13.89" length="13.49" shape="2051.25,791.87 2047.89,789.72 2045.72,788.04 2043.79,786.07 2041.14,783.08"/>
    </edge>
    <edge id=":1550539582_2" function="internal">
        <lane id=":1550539582_2_0" index="0" disallow="pedestrian tram rail_urban rail rail_electric rail_fast ship" speed="3.65" length="2.34" shape="2051.25,791.87 2050.65,790.56 2050.73,789.67"/>
    </edge>
    <edge id=":1550539582_9" function="internal">
        <lane id=":1550539582_9_0" index="0" disallow="pedestrian tram rail_urban rail rail_electric rail_fast ship" speed="7.45" length="4.10" shape="2046.23,791.36 2044.96,791.82 2042.71,793.41"/>
    </edge>
    <edge id=":1550539582_10" function="internal">
        <lane id=":1550539582_10_0" index="0" disallow="pedestrian tram rail_urban rail rail_electric rail_fast ship" speed="3.65" length="2.34" shape="2050.73,789.67 2051.49,789.20 2052.93,789.15"/>
    </edge>
    <edge id=":1550539582_3" function="internal">
        <lane id=":1550539582_3_0" index="0" disallow="pedestrian tram rail_urban rail rail_electric rail_fast ship" speed="13.89" length="12.54" shape="2043.54,780.96 2046.01,783.75 2047.80,785.58 2049.81,787.15 2052.93,789.15"/>
    </edge>
    <edge id=":1550539582_4" function="internal">
        <lane id=":1550539582_4_0" index="0" disallow="pedestrian tram rail_urban rail rail_electric rail_fast ship" speed="7.99" length="5.78" shape="2043.54,780.96 2045.69,784.23 2046.02,786.06"/>
    </edge>
    <edge id=":1550539582_5" function="internal">
        <lane id=":1550539582_5_0" index="0" disallow="pedestrian tram rail_urban rail rail_electric rail_fast ship" speed="3.65" length="2.34" shape="2043.54,780.96 2043.74,782.39 2043.40,783.22"/>
    </edge>
    <edge id=":1550539582_11" function="internal">
        <lane id=":1550539582_11_0" index="0" disallow="pedestrian tram rail_urban rail rail_electric rail_fast ship" speed="7.99" length="8.48" shape="2046.02,786.06 2046.27,787.39 2045.27,790.45 2042.71,793.41"/>
    </edge>
    <edge id=":1550539582_12" function="internal">
        <lane id=":1550539582_12_0" index="0" disallow="pedestrian tram rail_urban rail rail_electric rail_fast ship" speed="3.65" length="2.34" shape="2043.40,783.22 2042.54,783.45 2041.14,783.08"/>
    </edge>
    <edge id=":1550539582_6" function="internal">
        <lane id=":1550539582_6_0" index="0" disallow="pedestrian tram rail_urban rail rail_electric rail_fast ship" speed="6.50" length="9.06" shape="2040.61,790.99 2042.24,789.11 2042.88,787.17 2042.51,785.15 2041.14,783.08"/>
    </edge>
    <edge id=":1550539582_7" function="internal">
        <lane id=":1550539582_7_0" index="0" disallow="pedestrian tram rail_urban rail rail_electric rail_fast ship" speed="8.82" length="13.42" shape="2040.61,790.99 2043.77,788.80 2046.88,787.77 2049.93,787.89 2052.93,789.15"/>
    </edge>
    <edge id=":1550539582_8" function="internal">
        <lane id=":1550539582_8_0" index="0" disallow="pedestrian tram rail_urban rail rail_electric rail_fast ship" speed="3.65" length="4.67" shape="2040.61,790.99 2042.05,790.81 2042.87,791.15 2043.09,792.02 2042.71,793.41"/>
    </edge>
    <edge id=":1550539582_c0" function="crossing" crossingEdges="-225052911#1 225052911#1">
        <lane id=":1550539582_c0_0" index="0" allow="pedestrian" speed="1.00" length="6.40" width="4.00" shape="2052.07,786.74 2048.71,792.18"/>
    </edge>
    <edge id=":1550539582_c1" function="crossing" crossingEdges="169359373#0 -169359373#0">
        <lane id=":1550539582_c1_0" index="0" allow="pedestrian" speed="1.00" length="6.40" width="4.00" shape="2041.27,785.63 2046.07,781.40"/>
    </edge>
    <edge id=":1550539582_c2" function="crossing" crossingEdges="-155035496#1 155035496#1">
        <lane id=":1550539582_c2_0" index="0" allow="pedestrian" speed="1.00" length="6.40" width="4.00" shape="2045.27,793.30 2041.08,788.47"/>
    </edge>
    <edge id=":1550539582_w0" function="walkingarea">
        <lane id=":1550539582_w0_0" index="0" allow="pedestrian" speed="1.00" length="3.95" width="4.00" shape="2043.76,794.61 2045.07,796.13 2049.36,794.94 2050.41,793.23 2049.40,792.77 2048.36,792.58 2047.27,792.67 2046.14,793.04 2044.97,793.69"/>
    </edge>
    <edge id=":1550539582_w1" function="walkingarea">
        <lane id=":1550539582_w1_0" index="0" allow="pedestrian" speed="1.00" length="7.35" width="4.00" shape="2053.77,787.79 2054.83,786.09 2046.24,778.58 2044.74,779.90 2046.44,781.83 2047.72,783.24 2048.83,784.35 2050.05,785.34 2051.61,786.42"/>
    </edge>
    <edge id=":1550539582_w2" function="walkingarea">
        <lane id=":1550539582_w2_0" index="0" allow="pedestrian" speed="1.00" length="3.30" width="4.00" shape="2039.95,784.13 2038.45,785.46 2038.26,788.27 2039.57,789.78 2040.42,788.89 2040.96,787.98 2041.18,787.05 2041.08,786.10 2040.67,785.13"/>
    </edge>
    <edge id=":1550539666_0" function="internal">
        <lane id=":1550539666_0_0" index="0" disallow="pedestrian tram rail_urban rail rail_electric rail_fast ship" speed="6.52" length="4.85" shape="1421.61,669.08 1419.36,669.09 1417.60,669.95 1417.22,670.47"/>
    </edge>
    <edge id=":1550539666_1" function="internal">
        <lane id=":1550539666_1_0" index="0" disallow="pedestrian tram rail_urban rail rail_electric rail_fast ship" speed="13.89" length="12.94" shape="1421.61,669.08 1417.83,668.44 1415.24,667.95 1412.69,667.33 1408.98,666.32"/>
    </edge>
    <edge id=":1550539666_2" function="internal">
        <lane id=":1550539666_2_0" index="0" allow="bicycle" speed="2.93" length="1.10" width="1.50" shape="1421.75,668.25 1421.26,667.78 1421.14,667.38"/>
    </edge>
    <edge id=":1550539666_12" function="internal">
        <lane id=":1550539666_12_0" index="0" disallow="pedestrian tram rail_urban rail rail_electric rail_fast ship" speed="6.52" length="4.18" shape="1417.22,670.47 1416.34,671.67 1415.57,674.24"/>
    </edge>
    <edge id=":1550539666_13" function="internal">
        <lane id=":1550539666_13_0" index="0" allow="bicycle" speed="2.93" length="1.10" width="1.50" shape="1421.14,667.38 1421.38,667.04 1422.00,666.77"/>
    </edge>
    <edge id=":1550539666_3" function="internal">
        <lane id=":1550539666_3_0" index="0" allow="bicycle" speed="6.06" length="7.73" width="1.50" shape="1416.88,662.18 1416.97,663.83 1417.85,665.14 1419.53,666.12 1422.00,666.77"/>
    </edge>
    <edge id=":1550539666_4" function="internal">
        <lane id=":1550539666_4_0" index="0" disallow="pedestrian tram rail_urban rail rail_electric rail_fast ship" speed="13.89" length="12.24" shape="1416.04,662.04 1415.68,665.64 1415.81,668.14 1415.94,670.64 1415.57,674.24"/>
    </edge>
    <edge id=":1550539666_5" function="internal">
        <lane id=":1550539666_5_0" index="0" disallow="pedestrian tram rail_urban rail rail_electric rail_fast ship" speed="6.48" length="9.64" shape="1416.04,662.04 1415.22,664.54 1413.77,666.08 1411.69,666.68 1408.98,666.32"/>
    </edge>
    <edge id=":1550539666_6" function="internal">
        <lane id=":1550539666_6_0" index="0" allow="bicycle" speed="13.89" length="12.69" width="1.50" shape="1409.61,664.05 1413.25,665.04 1415.75,665.65 1418.29,666.14 1422.00,666.77"/>
    </edge>
    <edge id=":1550539666_7" function="internal">
        <lane id=":1550539666_7_0" index="0" allow="bicycle" speed="8.06" length="4.25" shape="1409.61,664.05 1413.10,665.55 1413.43,665.86"/>
    </edge>
    <edge id=":1550539666_8" function="internal">
        <lane id=":1550539666_8_0" index="0" allow="bicycle" speed="3.31" length="1.44" shape="1409.61,664.05 1410.55,665.14"/>
    </edge>
    <edge id=":1550539666_14" function="internal">