<?xml version="1.0" encoding="UTF-8"?>

<!-- generated on 2021-06-20 18:11:40 by Eclipse SUMO duarouter Version 1.9.2
<configuration xmlns:xsi="http://www.w3.org/2001/XMLSchema-instance" xsi:noNamespaceSchemaLocation="http://sumo.dlr.de/xsd/duarouterConfiguration.xsd">

    <input>
        <net-file value="/home/diego/Documentos/rep/github-pessoal/hadoop-simulation-urban-modbility/2021-06-20-18-11-11/osm.net.xml"/>
        <route-files value="/home/diego/Documentos/rep/github-pessoal/hadoop-simulation-urban-modbility/2021-06-20-18-11-11/osm.bicycle.trips.xml"/>
    </input>

    <output>
        <output-file value="routes.rou.xml"/>
        <alternatives-output value="routes.rou.alt.xml"/>
    </output>

    <time>
        <begin value="0"/>
        <end value="150"/>
    </time>

    <report>
        <no-warnings value="true"/>
        <ignore-errors value="true"/>
        <no-step-log value="true"/>
    </report>

</configuration>
-->

<routes xmlns:xsi="http://www.w3.org/2001/XMLSchema-instance" xsi:noNamespaceSchemaLocation="http://sumo.dlr.de/xsd/routes_file.xsd">
    <vType id="bike_bicycle" vClass="bicycle"/>
    <vehicle id="bike0" type="bike_bicycle" depart="0.00" departLane="best" departSpeed="max">
        <route edges="169923332#0 169923332#1 169923332#2 169923246#2 169923246#3 169923247#0 169923247#1 -361337423#2 -361337423#1 -361337423#0 361650450#0 361650450#1 205860272#4 130886846#0 130886846#1 130886846#2 888777002#0 141650123#0 141650123#1 141650123#2 205860673#1 130920000#0 130920000#1 130920000#2 -130920000#2"/>
    </vehicle>
    <vehicle id="bike1" type="bike_bicycle" depart="0.99" departLane="best">
        <route edges="-206789202#4 206789202#4 206789202#5 206789202#6 924667126#0 206789218#0 206789214 206785643#0 206785643#1 206785643#2 206785643#3 206785643#5 206785643#6 206785643#7 191519118 154295978#5 154295979 380698888#1 205860273#1 205860273#2 205860273#3 154356894#0 154356894#1 815117304 815117305#0 815117305#1 815117305#2 205860534#2 205860534#3 205860534#4 205860534#5 205860534#6 -205860456#3 -205860456#2 -205860456#1 -205860456#0 527267087#2 -130882583#5 -130882583#4 -130882583#3 -130882583#2 -130882583#1 -130882583#0 -205860399#2"/>
    </vehicle>
    <vehicle id="bike2" type="bike_bicycle" depart="1.98" departLane="best">
        <route edges="205860534#9 205860534#1 205860534#2 205860534#3 205860534#4 205860534#5 205860534#6 -205860456#3 -205860456#2 -205860456#1 -205860456#0 527267087#2 205860311#20 205860311#21"/>
    </vehicle>
    <vehicle id="bike3" type="bike_bicycle" depart="2.97" departLane="best">
        <route edges="476708484#0 -476708484#0 -476998468#0 -925006919 476708483 205860311#18 205860311#19 205860311#20 205860311#21 205860311#22 -361650451#2 -361650451#1 -361650451#0 815117303 373344070#0 373344070#1 373344070#2 373344070#3 373344070#4 141650095#0 141650095#1 380698878 380698877#1 153474816 380698889#0 380698889#1 154295978#1 153047125#0 153047125#1 153047125#2 191519111#0 191519111#1 152907333 -153474797#10 -153474797#9 -153474797#8 -153474797#7 -153474797#6 -153474797#5 -153481120#1"/>
    </vehicle>
    <vehicle id="bike4" type="bike_bicycle" depart="3.96" departLane="best">
        <route edges="130877766 205860398#0 205860398#1 205860398#2 205860399#0 205860399#1 205860399#2 205860397#0 130920002#0 -130920002#0"/>
    </vehicle>
    <vehicle id="bike5" type="bike_bicycle" depart="4.95" departLane="best" departSpeed="max">
        <route edges="-205860425#5 154979269#0 154979276#1 154979276#2 815116747 373344070#0 373344070#1 373344070#2 373344070#3 373344070#4 141650095#0 141650095#1 380698878 380698877#1 153474816 380698889#0 380698889#1 154295978#1 153047125#0 153047125#1 153047125#2 191519111#0 191519111#1 152907333 -153474797#10 -153474797#9 -153474797#8 -153474797#7 -153474797#6 -153474797#5 -153474797#4 -153474797#3 153474797#3"/>
    </vehicle>
    <vehicle id="bike6" type="bike_bicycle" depart="5.94" departLane="best">
        <route edges="-130920000#4 -130920000#3 -130920000#2 -130920000#1 -130920002#1 -130920002#0 205860397#1 130882582#0 130882582#1 130882582#2 130882582#3 130882582#4 205860311#22 -361650451#2 -361650451#1 -361650451#0 815117303 373344070#0 373344070#1 373344070#2 373344070#3 373344070#4 141650095#0 141650095#1 380698878 380698877#1 153474816 380698889#0 380698889#1 154295978#1 153047125#0 -152907262#1 -165885111 -152907232#3 -152907232#2 -152907232#1 191519140#6 -191519133#7 -191519133#6 -191519133#5 -191519133#4 -191519133#3"/>
    </vehicle>
    <vehicle id="bike7" type="bike_bicycle" depart="6.93" departLane="best" departSpeed="max">
        <route edges="171309450#0 -171309451#10 -171309451#9 -171309451#8 -171309451#7 -171309451#6 -171309451#5 -171309451#4 -171309451#3 -171309451#2 154157948#1"/>
    </vehicle>
    <vehicle id="bike8" type="bike_bicycle" depart="7.92" departLane="best">
        <route edges="-205860428#0 -372642301#0 -130920002#4 -130920002#3 -130920002#2 -130920002#1 -130920002#0 205860397#1 130882582#0 130882582#1 130882582#2 130882582#3 130882582#4 205860311#22 205860311#23 130886846#2 888777001 888777000#0 888777000#1 888777000#2 29011863#0 154979274#0 -154979267#3 154979237#1"/>
    </vehicle>
    <vehicle id="bike9" type="bike_bicycle" depart="8.91" departLane="best">
        <route edges="206789214 206785643#0 206785643#1 206785643#2 206785643#3 206785643#5 206785643#6 206785643#7 191519118 154295978#5 154295979 380698888#1 205860273#1 205860273#2 205860273#3 154356894#0 154356894#1 815117304 815117305#0 815117305#1 815117305#2 205860534#2 205860534#3 205860534#4 205860534#5 205860534#6 -205860456#3 -205860456#2 -205860456#1 -205860456#0 527267087#2 -130882583#5 -130882583#4 -130882583#3 130882581#1 130882581#2 -130882581#2"/>
    </vehicle>
    <vehicle id="bike10" type="bike_bicycle" depart="9.90" departLane="best">
        <route edges="206789202#3 206789202#4 206789202#5 206789202#6 924667126#0 206789218#0 206789214 206785643#0 206785643#1 206785643#2 206785643#3 206785643#5 206785643#6 206785643#7 191519118 154295978#5 154295979 380698888#1 205860273#1 205860273#2 205860273#3 205860273#4 205860272#0 205860272#1 205860272#2 205860272#3 205860272#4 130886846#0 130886846#1 130886846#2 888777002#0 888777002#1 888777002#2 888777002#3 888777002#4 888777002#5 888777002#6 166907800#0 166907800#1 154166022#0 154166022#1 444488634#0 205860392"/>
    </vehicle>
    <vehicle id="bike11" type="bike_bicycle" depart="10.88" departLane="best">
        <route edges="-476998473#2 -476998473#1 476998477 -476708485#0 -476708484#0 -476998468#0 -925006919 476708483 205860311#18 205860311#19 -130882583#5 -130882583#4 -130882583#3 -130882583#2 -130882583#1 -130882583#0 130920003#0 -130919995#3 -130919995#2 -130919995#1 -130919995#0 205860359#1 130920000#6 155446867 -155446867"/>
    </vehicle>
    <vehicle id="bike12" type="bike_bicycle" depart="11.87" departLane="best">
        <route edges="911135578#5 -911135578#5 -911135575#0 -911135576#0 -911135577#1 -911135577#0 -911135578#0 911135581#2 -171309448#6 -171309448#5 -171309448#4 -171309448#3 -171309448#2 -171309448#1 -171309448#0 154154167#1 205860311#0 205860311#1 205860311#2 205860311#3 205860311#4 205860311#5 205860311#6 205860311#7 205860311#8 205860311#9 205860311#10 205860311#11 205860311#12 205860311#13 205860311#14 205860311#15 205860311#16 476708481 925006919 476998468#0 476708479 -476708478#2 -476708478#1"/>
    </vehicle>
    <vehicle id="bike13" type="bike_bicycle" depart="12.86" departLane="best">
        <route edges="-154157946#0 154157937#0 154157937#1 154157937#2 -154157937#2"/>
    </vehicle>
    <vehicle id="bike14" type="bike_bicycle" depart="13.85" departLane="best">
        <route edges="380010054#1 130882583#4 130882583#5 205860311#20 373344064 205860456#1 205860456#2 205860456#3 205860534#7 205860534#8 130888848 154342286 154342285#1 205860439#0 205860439#1 205860439#2 205860439#3 205860439#4 -154979246#1 154979278#1"/>
    </vehicle>
    <vehicle id="bike15" type="bike_bicycle" depart="14.84" departLane="best">
        <route edges="206789202#6 924667126#0 206789218#0 206789214 206785643#0 206785643#1 206785643#2 206785643#3 206785643#5 206785643#6 206785643#7 191519118 154295978#5 154295979 380698888#1 205860273#1 205860273#2 205860273#3 154356894#0 154356894#1 815117304 815117305#0 815117305#1 815117305#2 205860534#2 205860534#3 205860534#4 205860534#5"/>
    </vehicle>
    <vehicle id="bike16" type="bike_bicycle" depart="15.83" departLane="best">
        <route edges="154155834#0 154155834#1 154154167#5 154154167#1 205860311#0 205860311#1 205860311#2 205860311#3 205860311#4 205860311#5 205860311#6 205860311#7 205860311#8 917362968"/>
    </vehicle>
    <vehicle id="bike17" type="bike_bicycle" depart="16.82" departLane="best">
        <route edges="-911135578#0 911135581#2 -171309448#6 -171309448#5 -171309448#4 -171309448#3 -171309448#2 -171309448#1 -171309448#0 154154167#1 205860311#0 205860311#1 205860311#2 205860311#3 205860311#4 205860311#5 205860311#6 205860311#7 205860311#8 205860311#9 205860311#10 205860311#11 205860311#12 205860311#13 205860311#14 205860311#15 205860311#16 205860311#17 205860311#18 205860311#19 205860311#20 205860311#21 205860311#22 205860311#23 130886846#2 888777001 888777000#0 205860278 -154166072#1 -154166072#0 205860389#1 205860389#2 205860389#3 205860389#4 205860389#5 205860389#6 154166032"/>
    </vehicle>
    <vehicle id="bike18" type="bike_bicycle" depart="17.81" departLane="best">
        <route edges="350999330 527267087#8 527267087#9 527267087#10 527267087#11 205860571 205860311#1 154166025#0 162945054#1 162945054#2"/>
    </vehicle>
    <vehicle id="bike19" type="bike_bicycle" depart="18.80" departLane="best">
        <route edges="385256872 205860654#5 205860654#6 205860654#7 205860654#8 205860654#9 915811867#7 915811867#8 888777000#0 888777000#1 888777000#2 29011863#0 29011863#1 29011863#2 29011863#3 29011863#4 29011863#5 815117303 373344070#0 373344070#1 373344070#2 373344070#3 373344070#4 141650095#0 141650095#1 380698878 380698877#1 153474816 380698889#0 380698889#1 154295978#1 154295978#2 154295978#3 368162348 -206785643#7 -206785643#6 -206785643#5 -206785643#3 -206785643#2 -206785643#1 -206785643#0 154979256 153481107#0 153481107#1 206785681#7 923743990 206785706#7 206785706#1 206785706#2 206785706#3 206785706#4 154305445#0"/>
    </vehicle>
    <vehicle id="bike20" type="bike_bicycle" depart="19.79" departLane="best">
        <route edges="205860389#8 -205860389#8 -205860389#7 -205860389#6 -205860389#5 -205860389#4 -205860389#3 -205860389#2 -205860389#1 154166072#0 -205860461#0 -205860460#3 -205860460#2 -205860460#1 -205860460#0 205860459 205860535#5 205860535#6 205860637 -62277607#1 -62277607#0 -169923282#6 -169923282#5 -169923282#4 -169923282#3 -169923282#1 -169923282#0 -169923311#4 -169923311#3 -169923311#2 -169923311#1 -141650129#4 -141650129#3"/>
    </vehicle>
    <vehicle id="bike21" type="bike_bicycle" depart="20.78" departLane="best">
        <route edges="-205860461#5 -205860461#4 -205860461#3 -205860461#2 -205860461#1 -205860461#0 -205860460#3 -205860460#2 -205860460#1 -205860460#0 205860459 205860535#5 205860535#6 205860637 -62277607#1 -62277607#0 169923282#7 205860388#0 205860388#2 -225052910#3 -225052910#2 -225052910#1 -225052910#0 -225052927#3 -225052927#2"/>
    </vehicle>
    <vehicle id="bike22" type="bike_bicycle" depart="21.77" departLane="best">
        <route edges="-153481113#2 -153481113#1 -153481113#0 206785643#2 206785643#3 206785643#5 206785643#6 206785643#7 191519118 154295978#5 154295979 380698888#1 205860273#1 205860273#2 205860273#3 154356894#0 154356894#1 815117304 815117305#0 815117305#1 815117305#2 205860534#2 205860534#3 205860534#4 205860534#5 205860534#6 205860534#7 205860534#8 130888848 154342286 154342285#1 205860439#0 -154979276#1 -154979276#0 154979231 -205860425#1 -205860425#0 205860424 205860535#3 155035442 205860460#0 -205860460#0"/>
    </vehicle>
    <vehicle id="bike23" type="bike_bicycle" depart="22.76" departLane="best">
        <route edges="-154166035#3 154166035#3 154166035#4 -205860360#0 439478173#1 439478173#2 -154166025#4 -154166025#3 -154166025#2 -154166025#1 -154166025#0 205860311#2 419930292 527267087#11 527267087#12 -681652450 -154979253#0 -154979264#1 -154979264#0 -154913984 206785705#5 154913998#0 154913998#1 154913998#2 154913998#3 206785706#4 206785706#5 923743991 -206785681#7 -206785681#6 -206785681#5 -206789198#1"/>
    </vehicle>
    <vehicle id="bike24" type="bike_bicycle" depart="23.75" departLane="best">
        <route edges="169923322#0 169923322#1 -225052927#1 -205860479 -155035514#1 169923246#1 169923246#2 169923246#3 169923247#0 -574628081#0"/>
    </vehicle>
    <vehicle id="bike26" type="bike_bicycle" depart="25.73" departLane="best">
        <route edges="-206785760#5 -206785760#4 -206785760#3 -206785760#2 -206785760#0 206785774 815117305#2 205860534#2 205860534#3 205860534#4 205860534#5 205860534#6 205860534#7 130920938 205860272#1 205860272#2 205860272#3 205860272#4 130886846#0 130886846#1 130886846#2 888777002#0 888777002#1 888777002#2 888777002#3 888777002#4 888777002#5"/>
    </vehicle>
    <vehicle id="bike27" type="bike_bicycle" depart="26.72" departLane="best">
        <route edges="171309448#6 -171309448#6 -171309448#5 -171309448#4 -171309448#3 -171309448#2 -171309448#1 -171309448#0 154154167#1 154154167#2 154154167#3 91885090 154154165#3 154377486 206785705#4 206785705#5 154913998#0 154913998#1 154913998#2 154913998#3 206785706#4 154305445#0 154305445#1 206785643#0 206785643#1 206785643#2 206785643#3 206785643#5 206785643#6 206785643#7 191519118 154295978#5 154295979 380698888#1 205860273#1 205860273#2 205860575#0 205860575#1 373344070#2 373344070#3 373344070#4 373344070#5 129213040#0 129213040#1 129213040#2 129213040#3 205860479 225052927#1 225052927#2 155035507#1"/>
    </vehicle>
    <vehicle id="bike28" type="bike_bicycle" depart="27.71" departLane="best">
        <route edges="-171309448#1 -171309448#0 154154167#1 154154167#2 154154167#3 91885090 154154165#3 154377486 206785705#4 206785705#5 154913998#0 154913998#1 154913998#2 154913998#3 206785706#4 154305445#0 154305445#1 206785643#0 206785643#1 206785643#2 206785643#3 206785643#5 206785643#6 206785643#7 191519118 154295978#5 154295979 380698888#1 205860273#1 205860273#2 205860273#3 154356894#0 154356894#1 815117304 815117305#0 815117305#1 815117305#2 205860534#2 205860534#3"/>
    </vehicle>
    <vehicle id="bike30" type="bike_bicycle" depart="29.69" departLane="best">
        <route edges="925008262#1 -925008261 -925008262#0 925008264 373344070#4 141650095#0 141650095#1 380698878 380698877#1 153474816 380698889#0 380698889#1 154295978#1 154295978#2 154295978#3 368162348 -206785643#7 -206785643#6 -206785643#5 -206785643#3 -206785643#2 -206785643#1 -206785643#0 154979256 153481107#0 153481107#1 206785681#7 923743990 206785706#7 206785706#1 206785706#2 154154170#0 154154170#1 154154170#2 206785705#1 206785705#2 154154169 154154165#5 154154165#0 154154165#1 154155834#0 154155834#1 154154167#5 171309448#0 171309448#1 171309448#2 171309448#3 171309448#4 171309448#5 171309448#6 171309448#7 171309448#8 171309448#9 171309448#11"/>
    </vehicle>
    <vehicle id="bike31" type="bike_bicycle" depart="30.67" departLane="best">
        <route edges="154166026#0 154166026#1 154166026#2 -154166097#3 -154166097#2 -154166097#1 -154166097#0 -171309448#12 -171309448#11 -171309448#9 -171309448#8 -171309448#7 -171309448#6 -171309448#5 -171309448#4 -171309448#3 -171309448#2 -171309448#1 -171309448#0 154154167#1 205860311#0 205860311#1 205860311#2 205860311#3 205860311#4 205860375 443083020#1 443083020#2 443083020#3 443083020#4 205860374#0 205860374#1 205860374#2 -446749128#2 -446749128#1 -446749128#0 -154166057#2 -154166057#1 -154166057#0 205860524#0 205860524#1 205860524#2 915811868 205860585 444491948#0 444491948#1 444491948#2 444491948#3 444491948#4 444491948#5 205860654#0 205860654#1 205860654#2 154166063 -205860367#1 205860367#1"/>
    </vehicle>
    <vehicle id="bike32" type="bike_bicycle" depart="31.66" departLane="best">
        <route edges="372642301#0 372642301#1 372642301#2 439478173#0 439478173#1 439478173#2 -154166025#4 -154166025#3 -154166025#2 -154166025#1 -154166025#0 205860311#2 419930292 527267087#11 527267087#12 -681652450 -154979253#0 -154979264#1 -154979264#0 -154913984 206785705#5 154913998#0 154913998#1 154913998#2 154913998#3 206785706#4 206785706#5"/>
    </vehicle>
    <vehicle id="bike33" type="bike_bicycle" depart="32.65" departLane="best">
        <route edges="-205860463#0 -130882581#3 -130883282#2 -130883282#1 -130883282#0 205860399#1 205860399#2 130920003#0 130920003#1 -130920003#1"/>
    </vehicle>
    <vehicle id="bike34" type="bike_bicycle" depart="33.64" departLane="best">
        <route edges="-439478173#1 -439478173#0 -441354964#1 -441354964#0 -130920004#4 -130920004#3 -130920004#2 -130920003#2 -130920003#1 -130920003#0 130882583#0 130882583#1 130882583#2 130882583#3 130882583#4 130882583#5 205860311#20 373344064 205860456#1 205860456#2 205860456#3 205860534#7 205860534#8 205860534#9 205860534#1 205860534#2 205860534#3 205860534#4 205860446#0 205860446#1 205860446#2 205860446#5 130920950#2 206785776#0 206785776#1 206785776#2 206785776#3 206785776#4 206785776#5 206785776#7 206785776#8 206785776#9 206785776#10 206785744#1 371834354 924771936 924771937 -924741138#0 205860605 206785716 -206785716"/>
    </vehicle>
    <vehicle id="bike35" type="bike_bicycle" depart="34.63" departLane="best" departSpeed="max">
        <route edges="-205860392 -444488634#0 -205860428#3 -205860428#2 -205860428#1 -205860428#0 372642301#1 372642301#2 439478173#0 439478173#1 439478173#2 -154166025#4 -154166025#3 -154166025#2 -154166025#1 -154166025#0 205860311#2 419930292 527267087#11 527267087#12 527267087#13 154154167#3 154154167#4 154154167#5 171309448#0 171309448#1 171309448#2 171309448#3 911098583#0 911098582 911098580"/>
    </vehicle>
    <vehicle id="bike36" type="bike_bicycle" depart="35.62" departLane="best">
        <route edges="444306144#0 888777002#4 888777002#5 888777002#6 205860524#0 205860524#1 205860524#2 915811868 205860585 444491948#0 444491948#1 444491948#2 444491948#3 444491948#4 444491948#5 205860654#0 205860654#1 205860654#2 205860654#3 385256871 -385256873#2 -385256873#1"/>
    </vehicle>
    <vehicle id="bike37" type="bike_bicycle" depart="36.61" departLane="best">
        <route edges="171309454#2 -171309454#2 -171309454#1 171309461#0 171309461#1 170773053#4 170773053#5 170773053#6 636361512 154154165#1 154155834#0 154155834#1 154154167#5 154154167#1 205860311#0 205860311#1 205860311#2 205860311#3 205860311#4 205860311#5 915429555 915429558#0 915429557#0 915429557#1 -915429557#1"/>
    </vehicle>
    <vehicle id="bike38" type="bike_bicycle" depart="37.60" departLane="best">
        <route edges="570276149#2 570276149#3 -570276157#1 -570276157#0 205860311#10 205860311#11 205860311#12 205860311#13 205860311#14 205860311#15 205860311#16 205860311#17 205860311#18 205860311#19 205860311#20 205860311#21 205860311#22 -361650451#2 -361650451#1 -361650451#0 815117303 373344070#0 373344070#1 373344070#2 373344070#3 373344070#4 141650095#0 361337423#2 361337423#3 361337423#4 380698884#4 152907148 205860273#0 205860273#1 130921074#0 130921074#1 130921074#2 130921073#3 130920949#0"/>
    </vehicle>
    <vehicle id="bike39" type="bike_bicycle" depart="38.59" departLane="best">
        <route edges="-206785753#0 206785745#1 206785765#4 130921074#1 130921074#2 130921073#3 130921073#4 130921073#5 130921077 206785767#1 206785767#2 206785767#3 206785767#4 206785767#5 338713174 338713175 815117303 373344070#0 373344070#1 373344070#2 373344070#3 373344070#4 141650095#0 141650095#1 380698878 380698877#1 153474816 380698889#0 380698889#1 154295978#1 154295978#2 154295978#3 368162348 -206785643#7 -206785643#6 -206785643#5 -206785643#3 -206785643#2 -206785643#1 -206785643#0"/>
    </vehicle>
    <vehicle id="bike40" type="bike_bicycle" depart="39.58" departLane="best">
        <route edges="154166040#1 -154166040#1 -205860475#1 -205860475#0 -130920002#4 -130920002#3 -130920002#2 -130920002#1 -130920002#0 205860397#1 130882582#0 130882582#1 130882582#2 130882582#3 130882582#4 205860311#22 -361650451#2 -361650451#1 -361650451#0 815117303 373344070#0 373344070#1 373344070#2 373344070#3 373344070#4 141650095#0 141650095#1 380698878 380698877#1 153474816 380698889#0 380698889#1 154295978#1 154295978#2 154295978#3 368162348 -206785643#7 153481100#0 153481100#1 153481100#2 -206785681#2"/>
    </vehicle>
    <vehicle id="bike41" type="bike_bicycle" depart="40.57" departLane="best">
        <route edges="154880303#3 152907255#4 152907255#5 152907255#6 152907255#7 -191519140#1 206785659#0 206785659#1 206785659#2 356685802#3 152907362#1 165885111 191519142#0 152850233#14 152850233#15 380698888#0 380698888#1 205860273#1 205860273#2 205860273#3 154356894#0 154356894#1 815117304 815117305#0 815117305#1 815117305#2 205860534#2 205860534#3 205860534#4 205860534#5 205860534#6 -205860456#3 -205860456#2 -205860456#1 -205860456#0 527267087#2 527267087#3 527267087#4 527267087#5 205860595 205860311#15 205860311#16 476708481 925006919 476998468#0 476708484#0 476708484#1 476708485#1 -476998475#3 476998473#3"/>
    </vehicle>
    <vehicle id="bike42" type="bike_bicycle" depart="41.56" departLane="best" departSpeed="max">
        <route edges="-924667126#1 206789218#0 206789214 206785643#0 206785643#1 206785643#2 206785643#3 206785643#5 206785643#6 206785643#7 191519118 154295978#5 154295979 380698888#1 205860273#1 205860273#2 205860273#3 205860273#4 205860272#0 205860272#1 205860272#2 205860272#3 205860272#4 130886846#0 130886846#1 130886846#2 888777001 888777000#0 205860278 -154166072#1 -154166072#0 205860389#1 205860389#2 205860389#3 205860389#4 205860389#5 205860389#6 205860389#7 -205860389#7"/>
    </vehicle>
    <vehicle id="bike43" type="bike_bicycle" depart="42.55" departLane="best">
        <route edges="926644051#0 -926644051#0 925008260 925008264 373344070#4 141650095#0 141650095#1 380698878 380698877#1 153474816 380698889#0 380698889#1 154295978#1 154295978#2 154295978#3 368162348 -206785643#7 -206785643#6 -206785643#5 -153481111#4 153474808#6"/>
    </vehicle>
    <vehicle id="bike44" type="bike_bicycle" depart="43.54" departLane="best">
        <route edges="-154157939#1 154157939#1 154157939#2 -911191085 -171309448#4 -171309448#3 -171309448#2 -171309448#1 -171309448#0 154154167#1 154154167#2 154154167#3 91885090 154154165#3 154377486 206785705#4 206785705#5 154913998#0 154913998#1 154913998#2 154913998#3 206785706#4 154305445#0 154305445#1 206785643#0 206785643#1 206785643#2 206785643#3 206785643#5 206785643#6 206785643#7 191519118 154295978#5 154295979 380698888#1 205860273#1 205860273#2 205860273#3 154356894#0 154356894#1 815117304 815117305#0 815117305#1 815117305#2 205860534#2 205860534#3 205860534#4 205860534#5 205860534#6 205860534#7 205860534#8 130888848 154342286 154342285#1 205860439#0 -154979276#1 -154979276#0 155035531 -169923282#7 -169923282#6 -169923282#5 141650155 -141650155"/>
    </vehicle>
    <vehicle id="bike45" type="bike_bicycle" depart="44.53" departLane="best">
        <route edges="-154166066#1 -205860461#1 -205860461#0 -205860460#3 -205860460#2 -205860460#1 -205860460#0 205860459 205860535#5 205860535#6 205860637 -62277607#1 -62277607#0 -169923282#6 -169923282#5 -169923282#4 -169923282#3 -169923282#1 169923282#1"/>
    </vehicle>
    <vehicle id="bike46" type="bike_bicycle" depart="45.52" departLane="best">
        <route edges="206785761#2 -206785761#2 -206785732#1 -206785732#0 206785745#1 206785765#4 130921074#1 130921074#2 130921073#3 130921073#4 130921073#5 130921077 206785767#1 206785767#2 206785767#3 206785767#4 206785767#5 338713174 338713175 815117303 373344070#0 373344070#1 373344070#2 373344070#3 373344070#4 373344070#5 129213040#0 129213040#1 129213040#2 129213040#3 129213040#4"/>
    </vehicle>
    <vehicle id="bike47" type="bike_bicycle" depart="46.51" departLane="best">
        <route edges="-153474800#0 153474800#0 206785669#0 206785669#1 206785669#2 206785669#3 206785669#4 206785669#5 -368167200#0 947581040 206785706#2 154154170#0 154154170#1 154154170#2 206785705#1 206785705#2 154154169 154154165#5 154154165#0 154154165#1 154155834#0 154155834#1 154154167#5 171309448#0 171309448#1 171309448#2 171309448#3 911098583#0 911098582 -911098583#1"/>
    </vehicle>
    <vehicle id="bike48" type="bike_bicycle" depart="47.50" departLane="best">
        <route edges="926483184 130921076#1 130921075#0 206785767#3 206785767#4 206785767#5 338713174 338713175 815117303 373344070#0 373344070#1 373344070#2 373344070#3 373344070#4 141650095#0 141650095#1 380698878 380698877#1 153474816 380698889#0 380698889#1 154295978#1 154295978#2 154295978#3 368162348 -206785643#7 -206785643#6 -206785643#5 -206785643#3 -206785643#2 -206785643#1 -206785643#0 154979256 153481107#0 153481107#1 206785681#7 923743990 206785706#7 206785706#1 206785706#2 154154170#0 154154170#1 154154170#2 206785705#1 206785705#2 154154169 154154165#5 154154165#0 154154165#1 154154165#2"/>
    </vehicle>
    <vehicle id="bike49" type="bike_bicycle" depart="48.49" departLane="best">
        <route edges="915689633#1 -915689633#1 570276150#1 570276150#2 570276150#3 -570276157#1 -570276157#0 205860311#10 205860311#11 205860311#12 205860311#13 205860311#14 205860311#15 205860311#16 205860311#17 205860311#18 205860311#19 205860311#20 205860311#21 205860311#22 205860311#23 130886846#2 888777001 888777000#0 205860278 154166105#1 154166105#2 154166105#3 154166105#4 154166105#5 154166105#6 154166105#7 -129213020#2 -129213020#1 385256878 385256880#1"/>
    </vehicle>
    <vehicle id="bike50" type="bike_bicycle" depart="49.48" departLane="best">
        <route edges="-130883281#0 130883281#0 130883281#1 130883286#2 130882581#2 130882581#3 205860463#0"/>
    </vehicle>
    <vehicle id="bike51" type="bike_bicycle" depart="50.47" departLane="best">
        <route edges="205860311#13 205860311#14 205860311#15 205860556 527267087#5 527267087#6 527267087#7 527267087#8 527267087#9 527267087#10 527267087#11 527267087#12 527267087#13 154154167#3 154154167#4 154154167#5 171309448#0 171309448#1 171309448#2 171309448#3 171309448#4 911191085 -154157918#5 -154157918#4 154157918#4"/>
    </vehicle>
    <vehicle id="bike52" type="bike_bicycle" depart="51.45" departLane="best">
        <route edges="-206785760#5 -206785760#4 -206785760#3 -206785760#2 -206785760#0 206785774 815117305#2 205860534#2 205860534#3 205860534#4 205860534#5 205860534#6 205860534#7 205860534#8 130888848 154342286 154342285#1 205860439#0 154979276#2 815116747 373344070#0 373344070#1 373344070#2 373344070#3 373344070#4 141650095#0 141650095#1 380698878 380698877#1 153474816 380698889#0 380698889#1 154295978#1 154295978#2 154295978#3 368162348 -206785643#7 -206785643#6 -206785643#5 -206785643#3 -206785643#2 -206785643#1 -206785643#0 154979256 153481107#0 153481107#1 206785681#7 923743990 206785706#7 206785706#1 206785706#2 154154170#0 154154170#1 154154170#2 206785705#1 206785705#2 154154169 154154165#5 154154165#0 154154165#1 154155834#0 154155834#1 154154167#5 171309448#0 171309448#1 171309448#2 171309448#3 171309448#4 171309448#5 171309448#6 171309448#7 171309448#8 171309448#9 171309448#11 171309448#12 171309448#14 171309448#15"/>
    </vehicle>
    <vehicle id="bike53" type="bike_bicycle" depart="52.44" departLane="best">
        <route edges="-154166075#1 -154166075#0 915811867#8 888777000#0 888777000#1 888777000#2 888777000#3 130886846#0 527267087#0 527267087#1 527267087#2 -130882583#5 -130883284#1 -130883284#0 -130883283#4 -130883283#3 -130883283#2 -130883283#1 130883283#1"/>
    </vehicle>
    <vehicle id="bike54" type="bike_bicycle" depart="53.43" departLane="best">
        <route edges="130920004#2 130920004#3 130920004#4 441354965#0 441354965#1 441354965#2 -154166025#2 -154166025#1 -154166025#0 205860311#2 419930292 527267087#11 527267087#12 527267087#13 154154167#3 154154167#4 154154167#5 171309448#0 171309448#1 171309448#2 171309448#3 171309448#4 171309448#5 171309448#6 171309448#7 171309448#8 911191084"/>
    </vehicle>
    <vehicle id="bike55" type="bike_bicycle" depart="54.42" departLane="best">
        <route edges="443083020#4 -443083020#4 -443083020#3 441354965#2 -154166025#2 -154166025#1 -154166025#0 205860311#2 419930292 527267087#11 527267087#12 -681652450 -154979253#0 -154979264#1 -154979264#0 -154913984 206785705#5 154913998#0 154913998#1 154913998#2 154913998#3 206785706#4 206785706#5 923743991 -206785681#7 -206785681#6 -206785681#5 -206785681#4"/>
    </vehicle>
    <vehicle id="bike56" type="bike_bicycle" depart="55.41" departLane="best">
        <route edges="153047125#0 152907262#3 152907262#4 -206785643#3 -206785643#2 -206785643#1 -206785643#0 154979256 153481107#0 153481107#1 206785681#7 923743990 206785706#7 206785706#1 206785706#2 154154170#0 154154170#1 154154170#2 206785705#1 206785705#2 154154169 154154165#5 636361511 -170773053#6"/>
    </vehicle>
    <vehicle id="bike57" type="bike_bicycle" depart="56.40" departLane="best">
        <route edges="570276148#2 -570276148#2 -570276148#1 570276150#2 570276150#3 -570276157#1 -570276157#0 205860311#10 205860311#11 350999330 527267087#8 527267087#9 527267087#10 527267087#11 205860571 205860311#1 205860311#2 205860311#3 205860311#4 205860375 443083020#1 -419930291#0 -130920000#6 -130920000#5 205860357#1 441354965#0"/>
    </vehicle>
    <vehicle id="bike58" type="bike_bicycle" depart="57.39" departLane="best" departSpeed="max">
        <route edges="-361654139#2 -361654139#1 -361654139#0 -361654137#2 -361654137#1 205860526#1 444306144#0 444306144#1 154166035#0 154166035#1 -205860428#0 372642301#1 372642301#2 439478173#0 439478173#1 439478173#2 -154166025#4 -154166025#3 -154166025#2 -154166025#1 -154166025#0 205860311#2 419930292 527267087#11 527267087#12 527267087#13 154154167#3 91885090 154154165#3 154154165#4 154154165#5 636361511 -170773053#6 170773053#6"/>